/*---------------------------------------------------------------------------*\
  =========                 |
  \\      /  F ield         | OpenFOAM: The Open Source CFD Toolbox
   \\    /   O peration     | Website:  https://openfoam.org
    \\  /    A nd           | Version:  8
     \\/     M anipulation  |
\*---------------------------------------------------------------------------*/
Build  : 8-1c9b5879390b
Exec   : snappyHexMesh -overwrite
Date   : Jul 15 2025
Time   : 08:51:01
Host   : "Sina"
PID    : 884
I/O    : uncollated
Case   : /mnt/c/users/engsi/onedrive/kk/windAroundBuildings_CFDHAM_veg
nProcs : 1
sigFpe : Enabling floating point exception trapping (FOAM_SIGFPE).
fileModificationChecking : Monitoring run-time modified files using timeStampMaster (fileModificationSkew 10)
allowSystemOperations : Allowing user-supplied system call operations

// * * * * * * * * * * * * * * * * * * * * * * * * * * * * * * * * * * * * * //
Create time

Create mesh for time = 0

Read mesh in = 0.03 s

Overall mesh bounding box  : (-115 -120 0) (365 300 150)
Relative tolerance         : 1e-06
Absolute matching distance : 0.00065520989

Reading refinement surfaces.
Read refinement surfaces in = 0.01 s

Reading refinement shells.
Refinement level according to distance to buildings
    level 4 for all cells within 3 metre.
    level 3 for all cells within 10 metre.
Refinement level according to distance to trees
    level 5 for all cells within 1 metre.
    level 4 for all cells within 2 metre.
Refinement level 2 for all cells inside refinementBox
Read refinement shells in = 0 s

Setting refinement level of surface to be consistent with shells.
Checked shell refinement in = 0 s

Reading features.
Read edgeMesh buildings_refined.eMesh
    points      : 2655
    edges       : 2777
    boundingBox : (8.1901426 18.603912 0) (237.28297 158.66006 56.5569)

Refinement level according to distance to "buildings_refined.eMesh" (2655 points, 2777 edges).
    level 5 for all cells within 0 metre.
Read features in = 0 s


Determining initial surface intersections
-----------------------------------------

Edge intersection testing:
    Number of edges             : 28376
    Number of edges to retest   : 28376
    Number of intersected edges : 314
Calculated surface intersections in = 0.03 s

Initial mesh : cells:8960  faces:28376  points:10527
Cells per refinement level:
    0	8960

Adding patches for surface regions
----------------------------------

Patch Type                Region                        
----- ----                ------                        
buildings:

6     wall                buildings                     

Added patches in = 0 s

Selecting decompositionMethod none
Layer thickness specified as first layer and expansion ratio.

Refinement phase
----------------

Found point (1 1 1) in cell 263 on processor 0

Feature refinement iteration 0
------------------------------

Marked for refinement due to explicit features             : 244 cells.
Determined cells to refine in = 0.03 s
Selected for feature refinement : 244 cells (out of 8960)
Edge intersection testing:
    Number of edges             : 34364
    Number of edges to retest   : 7989
    Number of intersected edges : 1235
Refined mesh in = 0.02 s
After refinement feature refinement iteration 0 : cells:10668  faces:34364  points:13148
Cells per refinement level:
    0	8716
    1	1952

Feature refinement iteration 1
------------------------------

Marked for refinement due to explicit features             : 830 cells.
Determined cells to refine in = 0.03 s
Selected for feature refinement : 1043 cells (out of 10668)
Edge intersection testing:
    Number of edges             : 59975
    Number of edges to retest   : 33981
    Number of intersected edges : 4351
Refined mesh in = 0.05 s
After refinement feature refinement iteration 1 : cells:17969  faces:59975  points:24427
Cells per refinement level:
    0	8502
    1	2835
    2	6632

Feature refinement iteration 2
------------------------------

Marked for refinement due to explicit features             : 1839 cells.
Determined cells to refine in = 0.09 s
Selected for feature refinement : 2796 cells (out of 17969)
Edge intersection testing:
    Number of edges             : 129686
    Number of edges to retest   : 100963
    Number of intersected edges : 13196
Refined mesh in = 0.15 s
After refinement feature refinement iteration 2 : cells:37541  faces:129686  points:56238
Cells per refinement level:
    0	8400
    1	2781
    2	11768
    3	14592

Feature refinement iteration 3
------------------------------

Marked for refinement due to explicit features             : 3817 cells.
Determined cells to refine in = 0.23 s
Selected for feature refinement : 7093 cells (out of 37541)
Edge intersection testing:
    Number of edges             : 306614
    Number of edges to retest   : 262240
    Number of intersected edges : 34880
Refined mesh in = 0.38 s
After refinement feature refinement iteration 3 : cells:87192  faces:306614  points:136726
Cells per refinement level:
    0	8360
    1	2570
    2	13219
    3	33243
    4	29800

Feature refinement iteration 4
------------------------------

Marked for refinement due to explicit features             : 7615 cells.
Determined cells to refine in = 0.69 s
Selected for feature refinement : 16148 cells (out of 87192)
Edge intersection testing:
    Number of edges             : 709331
    Number of edges to retest   : 614053
    Number of intersected edges : 80977
Refined mesh in = 0.86 s
After refinement feature refinement iteration 4 : cells:200228  faces:709331  points:319909
Cells per refinement level:
    0	8339
    1	2463
    2	13251
    3	44248
    4	73167
    5	58760

Feature refinement iteration 5
------------------------------

Marked for refinement due to explicit features             : 640 cells.
Determined cells to refine in = 1.78 s
Selected for feature refinement : 1008 cells (out of 200228)
Edge intersection testing:
    Number of edges             : 734573
    Number of edges to retest   : 48402
    Number of intersected edges : 83382
Refined mesh in = 0.5 s
After refinement feature refinement iteration 5 : cells:207284  faces:734573  points:331404
Cells per refinement level:
    0	8339
    1	2459
    2	13214
    3	44466
    4	75238
    5	63568

Feature refinement iteration 6
------------------------------

Marked for refinement due to explicit features             : 233 cells.
Determined cells to refine in = 1.81 s
Selected for feature refinement : 357 cells (out of 207284)
Edge intersection testing:
    Number of edges             : 743375
    Number of edges to retest   : 18249
    Number of intersected edges : 84148
Refined mesh in = 0.43 s
After refinement feature refinement iteration 6 : cells:209783  faces:743375  points:335309
Cells per refinement level:
    0	8339
    1	2458
    2	13196
    3	44565
    4	75889
    5	65336

Feature refinement iteration 7
------------------------------

Marked for refinement due to explicit features             : 39 cells.
Determined cells to refine in = 1.76 s
Selected for feature refinement : 55 cells (out of 209783)
Edge intersection testing:
    Number of edges             : 744746
    Number of edges to retest   : 2859
    Number of intersected edges : 84279
Refined mesh in = 0.4 s
After refinement feature refinement iteration 7 : cells:210168  faces:744746  points:335929
Cells per refinement level:
    0	8339
    1	2458
    2	13195
    3	44554
    4	76006
    5	65616

Feature refinement iteration 8
------------------------------

Marked for refinement due to explicit features             : 0 cells.
Determined cells to refine in = 1.77 s
Selected for feature refinement : 0 cells (out of 210168)
Stopping refining since too few cells selected.


Surface refinement iteration 0
------------------------------

Marked for refinement due to surface intersection          : 2676 cells.
Marked for refinement due to curvature/regions             : 8968 cells.
Determined cells to refine in = 0.12 s
Selected for refinement : 13871 cells (out of 210168)
Edge intersection testing:
    Number of edges             : 1063145
    Number of edges to retest   : 570224
    Number of intersected edges : 115129
Refined mesh in = 0.93 s
After refinement surface refinement iteration 0 : cells:307265  faces:1063145  points:459090
Cells per refinement level:
    0	8336
    1	2290
    2	11982
    3	63003
    4	96966
    5	124688

Surface refinement iteration 1
------------------------------

Marked for refinement due to surface intersection          : 452 cells.
Marked for refinement due to curvature/regions             : 596 cells.
Determined cells to refine in = 0.17 s
Selected for refinement : 1134 cells (out of 307265)
Edge intersection testing:
    Number of edges             : 1088099
    Number of edges to retest   : 48048
    Number of intersected edges : 117278
Refined mesh in = 0.67 s
After refinement surface refinement iteration 1 : cells:315203  faces:1088099  points:468068
Cells per refinement level:
    0	8336
    1	2282
    2	11582
    3	66633
    4	97042
    5	129328

Surface refinement iteration 2
------------------------------

Marked for refinement due to surface intersection          : 0 cells.
Marked for refinement due to curvature/regions             : 32 cells.
Determined cells to refine in = 0.16 s
Selected for refinement : 32 cells (out of 315203)
Edge intersection testing:
    Number of edges             : 1088783
    Number of edges to retest   : 1417
    Number of intersected edges : 117374
Refined mesh in = 0.6 s
After refinement surface refinement iteration 2 : cells:315427  faces:1088783  points:468297
Cells per refinement level:
    0	8336
    1	2282
    2	11582
    3	66633
    4	97010
    5	129584

Surface refinement iteration 3
------------------------------

Marked for refinement due to surface intersection          : 0 cells.
Marked for refinement due to curvature/regions             : 0 cells.
Determined cells to refine in = 0.16 s
Selected for refinement : 0 cells (out of 315427)
Stopping refining since too few cells selected.


Removing mesh beyond surface intersections
------------------------------------------

Found point (1 1 1) in global region 0 out of 26 regions.
Keeping all cells in region 0 containing point (1 1 1)
Selected for keeping : 269610 cells.
Edge intersection testing:
    Number of edges             : 974579
    Number of edges to retest   : 82142
    Number of intersected edges : 117374

Shell refinement iteration 0
----------------------------

Marked for refinement due to distance to explicit features : 0 cells.
Marked for refinement due to refinement shells             : 47451 cells.
Determined cells to refine in = 4.28 s
Selected for internal refinement : 61797 cells (out of 269610)
Edge intersection testing:
    Number of edges             : 2319083
    Number of edges to retest   : 2165453
    Number of intersected edges : 157073
Refined mesh in = 2.6 s
After refinement shell refinement iteration 0 : cells:702189  faces:2319083  points:917956
Cells per refinement level:
    0	7673
    1	5425
    2	18976
    3	88408
    4	358191
    5	223516

Shell refinement iteration 1
----------------------------

Marked for refinement due to distance to explicit features : 0 cells.
Marked for refinement due to refinement shells             : 8356 cells.
Determined cells to refine in = 0.38 s
Selected for internal refinement : 8835 cells (out of 702189)
Edge intersection testing:
    Number of edges             : 2505848
    Number of edges to retest   : 345044
    Number of intersected edges : 157073
Refined mesh in = 1.72 s
After refinement shell refinement iteration 1 : cells:764034  faces:2505848  points:981187
Cells per refinement level:
    0	7259
    1	4021
    2	55184
    3	98635
    4	373403
    5	225532

Shell refinement iteration 2
----------------------------

Marked for refinement due to distance to explicit features : 0 cells.
Marked for refinement due to refinement shells             : 2644 cells.
Determined cells to refine in = 0.4 s
Selected for internal refinement : 2806 cells (out of 764034)
Edge intersection testing:
    Number of edges             : 2568785
    Number of edges to retest   : 89677
    Number of intersected edges : 157073
Refined mesh in = 1.65 s
After refinement shell refinement iteration 2 : cells:783676  faces:2568785  points:1004743
Cells per refinement level:
    0	7218
    1	4105
    2	57136
    3	98483
    4	372250
    5	244484

Shell refinement iteration 3
----------------------------

Marked for refinement due to distance to explicit features : 0 cells.
Marked for refinement due to refinement shells             : 69 cells.
Determined cells to refine in = 0.45 s
Selected for internal refinement : 69 cells (out of 783676)
Edge intersection testing:
    Number of edges             : 2570318
    Number of edges to retest   : 4036
    Number of intersected edges : 157073
Refined mesh in = 1.61 s
After refinement shell refinement iteration 3 : cells:784159  faces:2570318  points:1005312
Cells per refinement level:
    0	7218
    1	4105
    2	57136
    3	98483
    4	372181
    5	245036

Shell refinement iteration 4
----------------------------

Marked for refinement due to distance to explicit features : 0 cells.
Marked for refinement due to refinement shells             : 0 cells.
Determined cells to refine in = 0.42 s
Selected for internal refinement : 0 cells (out of 784159)
Stopping refining since too few cells selected.


Dangling coarse cells refinement iteration 0
--------------------------------------------

Determined cells to refine in = 0.01 s
Selected for refinement : 22 cells (out of 784159)
Edge intersection testing:
    Number of edges             : 2570648
    Number of edges to retest   : 3514
    Number of intersected edges : 157073
Refined mesh in = 1.82 s
After refinement coarse cell refinement iteration 0 : cells:784313  faces:2570648  points:1005356
Cells per refinement level:
    0	7218
    1	4105
    2	57136
    3	98461
    4	372357
    5	245036

Dangling coarse cells refinement iteration 1
--------------------------------------------

Determined cells to refine in = 0.04 s
Selected for refinement : 0 cells (out of 784313)
Stopping refining since too few cells selected.


Dangling coarse cells refinement iteration 0
--------------------------------------------

Determined cells to refine in = 0.02 s
Selected for refinement : 0 cells (out of 784313)
Stopping refining since too few cells selected.


Splitting mesh at surface intersections
---------------------------------------

Introducing baffles for 157073 faces that are intersected by the surface.

Edge intersection testing:
    Number of edges             : 2727721
    Number of edges to retest   : 1163541
    Number of intersected edges : 302164
Created baffles in = 2.18 s


After introducing baffles : cells:784313  faces:2727721  points:1005356
Cells per refinement level:
    0	7218
    1	4105
    2	57136
    3	98461
    4	372357
    5	245036

Introducing baffles to block off problem cells
----------------------------------------------

markFacesOnProblemCells : marked 130021 additional internal faces to be converted into baffles.
Analyzed problem cells in = 1.58 s


Introducing baffles to delete problem cells.

Edge intersection testing:
    Number of edges             : 2857742
    Number of edges to retest   : 469245
    Number of intersected edges : 302164
Created baffles in = 1.68 s


After introducing baffles : cells:784313  faces:2857742  points:1005356
Cells per refinement level:
    0	7218
    1	4105
    2	57136
    3	98461
    4	372357
    5	245036

Remove unreachable sections of mesh
-----------------------------------

Keeping all cells in region 0 containing point (1 1 1)
Selected for keeping : 584825 cells.
Edge intersection testing:
    Number of edges             : 1962899
    Number of edges to retest   : 0
    Number of intersected edges : 149965
Split mesh in = 10.67 s


After subsetting : cells:584825  faces:1962899  points:800797
Cells per refinement level:
    0	7218
    1	4105
    2	57136
    3	98336
    4	259759
    5	158271

Handling cells with snap problems
---------------------------------

Introducing baffles for 149965 faces that are intersected by the surface.

Edge intersection testing:
    Number of edges             : 1962899
    Number of edges to retest   : 606955
    Number of intersected edges : 149965
Created baffles in = 1.13 s


After introducing baffles : cells:584825  faces:1962899  points:800797
Cells per refinement level:
    0	7218
    1	4105
    2	57136
    3	98336
    4	259759
    5	158271

Introducing baffles to block off problem cells
----------------------------------------------

markFacesOnProblemCells : marked 0 additional internal faces to be converted into baffles.
Analyzed problem cells in = 1 s


Introducing baffles to delete problem cells.

Edge intersection testing:
    Number of edges             : 1962899
    Number of edges to retest   : 0
    Number of intersected edges : 149965
Created baffles in = 0.84 s


After introducing baffles : cells:584825  faces:1962899  points:800797
Cells per refinement level:
    0	7218
    1	4105
    2	57136
    3	98336
    4	259759
    5	158271

Remove unreachable sections of mesh
-----------------------------------

Keeping all cells in region 0 containing point (1 1 1)
Selected for keeping : 584825 cells.
Edge intersection testing:
    Number of edges             : 1962899
    Number of edges to retest   : 0
    Number of intersected edges : 149965
Split mesh in = 8.06 s


After subsetting : cells:584825  faces:1962899  points:800797
Cells per refinement level:
    0	7218
    1	4105
    2	57136
    3	98336
    4	259759
    5	158271

Merge free-standing baffles
---------------------------

freeStandingBaffles : detected 0 free-standing baffles out of 0

Detected free-standing baffles : 0
Merged free-standing baffles in = 0.35 s


dupNonManifoldPoints : Found : 5 non-manifold points (out of 800797)
Edge intersection testing:
    Number of edges             : 1962899
    Number of edges to retest   : 0
    Number of intersected edges : 149965
Detected unsplittable baffles : 0

Merge refined boundary faces
----------------------------

Merging 2536 sets of faces.

Edge intersection testing:
    Number of edges             : 1960353
    Number of edges to retest   : 17090
    Number of intersected edges : 147419

Undo iteration 0
----------------
Checking faces in error :
    non-orthogonality > 65  degrees                        : 0
    faces with face pyramid volume < 1e-13                 : 0
    faces with concavity > 80  degrees                     : 0
    faces with skewness > 4   (internal) or 4   (boundary) : 0
    faces with interpolation weights (0..1)  < 0.05        : 0
    faces with volume ratio of neighbour cells < 0.01      : 0
    faces on cells with determinant < 0.001                : 0

Merging all points on surface that
- are used by only two boundary faces and
- make an angle with a cosine of more than 0.70710678.

Removing 2486 straight edge points ...

Edge intersection testing:
    Number of edges             : 1960353
    Number of edges to retest   : 17062
    Number of intersected edges : 147419

Undo iteration 0
----------------
Checking faces in error :
    non-orthogonality > 65  degrees                        : 0
    faces with face pyramid volume < 1e-13                 : 0
    faces with concavity > 80  degrees                     : 0
    faces with skewness > 4   (internal) or 4   (boundary) : 0
    faces with interpolation weights (0..1)  < 0.05        : 0
    faces with volume ratio of neighbour cells < 0.01      : 0
    faces on cells with determinant < 0.001                : 0
Refined mesh : cells:584825  faces:1960353  points:798311
Cells per refinement level:
    0	7218
    1	4105
    2	57136
    3	98336
    4	259759
    5	158271
Writing mesh to time constant
Wrote mesh in = 10.87 s.
Mesh refined in = 67.55 s.

Morphing phase
--------------


Snapping to features in 20 iterations ...
Constructing mesh displacer ...
Using mesh parameters 
{
    maxNonOrtho     65;
    maxBoundarySkewness 4;
    maxInternalSkewness 4;
    maxConcave      80;
    minVol          1e-13;
    minTetQuality   -1e+30;
    minArea         -1;
    minTwist        -1e+30;
    minDeterminant  0.001;
    minFaceWeight   0.05;
    minVolRatio     0.01;
    minTriangleTwist -1;
    nSmoothScale    4;
    errorReduction  0.75;
    relaxed
    {
        maxNonOrtho     75;
    }
}


Checking initial mesh ...
Checking faces in error :
    non-orthogonality > 65  degrees                        : 0
    faces with face pyramid volume < 1e-13                 : 0
    faces with concavity > 80  degrees                     : 0
    faces with skewness > 4   (internal) or 4   (boundary) : 0
    faces with interpolation weights (0..1)  < 0.05        : 0
    faces with volume ratio of neighbour cells < 0.01      : 0
    faces on cells with determinant < 0.001                : 0
Detected 0 illegal faces (concave, zero area or negative cell pyramid volume)
Checked initial mesh in = 1.01 s


Smoothing patch points ...
Smoothing iteration 0
Found 10 non-manifold point(s).

Scaling iteration 0
Moving mesh using displacement scaling : min:1  max:1
Checking faces in error :
    non-orthogonality > 65  degrees                        : 0
    faces with face pyramid volume < 1e-13                 : 0
    faces with concavity > 80  degrees                     : 0
    faces with skewness > 4   (internal) or 4   (boundary) : 0
    faces with interpolation weights (0..1)  < 0.05        : 0
    faces with volume ratio of neighbour cells < 0.01      : 0
    faces on cells with determinant < 0.001                : 0
Successfully moved mesh

Smoothing iteration 1
Found 0 non-manifold point(s).

Scaling iteration 0
Moving mesh using displacement scaling : min:1  max:1
Checking faces in error :
    non-orthogonality > 65  degrees                        : 0
    faces with face pyramid volume < 1e-13                 : 0
    faces with concavity > 80  degrees                     : 0
    faces with skewness > 4   (internal) or 4   (boundary) : 0
    faces with interpolation weights (0..1)  < 0.05        : 0
    faces with volume ratio of neighbour cells < 0.01      : 0
    faces on cells with determinant < 0.001                : 0
Successfully moved mesh

Smoothing iteration 2
Found 0 non-manifold point(s).

Scaling iteration 0
Moving mesh using displacement scaling : min:1  max:1
Checking faces in error :
    non-orthogonality > 65  degrees                        : 0
    faces with face pyramid volume < 1e-13                 : 0
    faces with concavity > 80  degrees                     : 0
    faces with skewness > 4   (internal) or 4   (boundary) : 0
    faces with interpolation weights (0..1)  < 0.05        : 0
    faces with volume ratio of neighbour cells < 0.01      : 0
    faces on cells with determinant < 0.001                : 0
Successfully moved mesh

Patch points smoothed in = 3.49 s



Morph iteration 0
-----------------
Calculating patchDisplacement as distance to nearest surface point ...
Wanted displacement : average:0.16717565 min:4.6300978e-06 max:0.56993841
Calculated surface displacement in = 0.14 s


Detecting near surfaces ...
Overriding nearest with intersection of close gaps at 0 out of 162939 points.
Overriding displacement on features :
   implicit features    : false
   explicit features    : true
   multi-patch features : false

Detected 0 baffle edges out of 317441 edges.
Initially selected 16480 points out of 162939 for reverse attraction.
Selected 44176 points out of 162939 for reverse attraction.
Stringing feature edges : changed 67 points
Stringing feature edges : changed 1 points
Stringing feature edges : changed 2 points
Stringing feature edges : changed 0 points
Attraction:
     linear   : max:(0.56993841 -5.9425467e-07 6.9006211e-07) avg:(-0.0049212669 0.0091002789 -0.015122396)
     feature  : max:(-0.38238671 0.39312121 0.21134671) avg:(-0.00115834 0.0010082396 0.0037523589)
Feature analysis : total master points:162939 attraction to :
    feature point   : 306
    feature edge    : 16147
    nearest surface : 0
    rest            : 146486

--> FOAM Warning : Displacement (-0.0085965314 -1.0881616e-09 -5.468694e-11) at mesh point 1386 coord (49.879047 90 15) points through the surrounding patch faces
Smoothing displacement ...
Iteration 0
Iteration 10
Iteration 20
Iteration 30
Iteration 40
Iteration 50
Iteration 60
Iteration 70
Displacement smoothed in = 3.46 s


Moving mesh ...

Iteration 0
Moving mesh using displacement scaling : min:1  max:1
Checking faces in error :
    non-orthogonality > 65  degrees                        : 0
    faces with face pyramid volume < 1e-13                 : 0
    faces with concavity > 80  degrees                     : 0
    faces with skewness > 4   (internal) or 4   (boundary) : 0
    faces with interpolation weights (0..1)  < 0.05        : 0
    faces with volume ratio of neighbour cells < 0.01      : 0
    faces on cells with determinant < 0.001                : 0
Successfully moved mesh
Moved mesh in = 0.93 s



Morph iteration 1
-----------------
Calculating patchDisplacement as distance to nearest surface point ...
Wanted displacement : average:0.16071755 min:1.7546759e-05 max:0.54943786
Calculated surface displacement in = 0.12 s


Detecting near surfaces ...
Overriding nearest with intersection of close gaps at 0 out of 162939 points.
Overriding displacement on features :
   implicit features    : false
   explicit features    : true
   multi-patch features : false

Detected 0 baffle edges out of 317441 edges.
Initially selected 16483 points out of 162939 for reverse attraction.
Selected 44180 points out of 162939 for reverse attraction.
Stringing feature edges : changed 64 points
Stringing feature edges : changed 2 points
Stringing feature edges : changed 0 points
Attraction:
     linear   : max:(0 0.54943786 0) avg:(-0.0047118053 0.008715535 -0.014511274)
     feature  : max:(-0.38143075 0.39213841 0.20077938) avg:(-0.001137115 0.00098692139 0.0036977048)
Feature analysis : total master points:162939 attraction to :
    feature point   : 304
    feature edge    : 16147
    nearest surface : 0
    rest            : 146488

--> FOAM Warning : Displacement (-0.016340671 -5.8760637e-10 2.971675e-10) at mesh point 1386 coord (49.870451 90 15) points through the surrounding patch faces
Smoothing displacement ...
Iteration 0
Iteration 10
Iteration 20
Iteration 30
Iteration 40
Iteration 50
Iteration 60
Iteration 70
Displacement smoothed in = 3.34 s


Moving mesh ...

Iteration 0
Moving mesh using displacement scaling : min:1  max:1
Checking faces in error :
    non-orthogonality > 65  degrees                        : 0
    faces with face pyramid volume < 1e-13                 : 0
    faces with concavity > 80  degrees                     : 0
    faces with skewness > 4   (internal) or 4   (boundary) : 0
    faces with interpolation weights (0..1)  < 0.05        : 0
    faces with volume ratio of neighbour cells < 0.01      : 0
    faces on cells with determinant < 0.001                : 0
Successfully moved mesh
Moved mesh in = 0.96 s



Morph iteration 2
-----------------
Calculating patchDisplacement as distance to nearest surface point ...
Wanted displacement : average:0.14817409 min:6.403598e-06 max:0.51380948
Calculated surface displacement in = 0.12 s


Detecting near surfaces ...
Overriding nearest with intersection of close gaps at 0 out of 162939 points.
Overriding displacement on features :
   implicit features    : false
   explicit features    : true
   multi-patch features : false

Detected 0 baffle edges out of 317441 edges.
Initially selected 16485 points out of 162939 for reverse attraction.
Selected 44184 points out of 162939 for reverse attraction.
Stringing feature edges : changed 60 points
Stringing feature edges : changed 2 points
Stringing feature edges : changed 0 points
Attraction:
     linear   : max:(0 0.51380948 0) avg:(-0.0043019749 0.0079711495 -0.013343037)
     feature  : max:(-0.37761644 0.38821703 0.18070144) avg:(-0.0010957729 0.00094552501 0.0035822324)
Feature analysis : total master points:162939 attraction to :
    feature point   : 302
    feature edge    : 16147
    nearest surface : 0
    rest            : 146490

--> FOAM Warning : Displacement (-0.02207544 3.9576636e-09 1.31816e-09) at mesh point 1386 coord (49.85411 90 15) points through the surrounding patch faces
Smoothing displacement ...
Iteration 0
Iteration 10
Iteration 20
Iteration 30
Iteration 40
Iteration 50
Iteration 60
Iteration 70
Displacement smoothed in = 3.21 s


Moving mesh ...

Iteration 0
Moving mesh using displacement scaling : min:1  max:1
Checking faces in error :
    non-orthogonality > 65  degrees                        : 0
    faces with face pyramid volume < 1e-13                 : 0
    faces with concavity > 80  degrees                     : 0
    faces with skewness > 4   (internal) or 4   (boundary) : 0
    faces with interpolation weights (0..1)  < 0.05        : 0
    faces with volume ratio of neighbour cells < 0.01      : 0
    faces on cells with determinant < 0.001                : 0
Successfully moved mesh
Moved mesh in = 0.94 s



Morph iteration 3
-----------------
Calculating patchDisplacement as distance to nearest surface point ...
Wanted displacement : average:0.13067623 min:4.6741437e-07 max:0.46420024
Calculated surface displacement in = 0.11 s


Detecting near surfaces ...
Overriding nearest with intersection of close gaps at 0 out of 162939 points.
Overriding displacement on features :
   implicit features    : false
   explicit features    : true
   multi-patch features : false

Detected 0 baffle edges out of 317441 edges.
Initially selected 16490 points out of 162939 for reverse attraction.
Selected 44191 points out of 162939 for reverse attraction.
Stringing feature edges : changed 61 points
Stringing feature edges : changed 2 points
Stringing feature edges : changed 0 points
Attraction:
     linear   : max:(0 0.46420024 0) avg:(-0.003728567 0.0069400888 -0.011741653)
     feature  : max:(-0.36912007 0.37948214 0.15359622) avg:(-0.0010368181 0.00088538408 0.0034014854)
Feature analysis : total master points:162939 attraction to :
    feature point   : 300
    feature edge    : 16152
    nearest surface : 0
    rest            : 146487

--> FOAM Warning : Displacement (-0.025035329 9.3804775e-09 2.7818146e-10) at mesh point 1386 coord (49.832035 90 15) points through the surrounding patch faces
Smoothing displacement ...
Iteration 0
Iteration 10
Iteration 20
Iteration 30
Iteration 40
Iteration 50
Iteration 60
Iteration 70
Displacement smoothed in = 3.23 s


Moving mesh ...

Iteration 0
Moving mesh using displacement scaling : min:1  max:1
Checking faces in error :
    non-orthogonality > 65  degrees                        : 0
    faces with face pyramid volume < 1e-13                 : 0
    faces with concavity > 80  degrees                     : 0
    faces with skewness > 4   (internal) or 4   (boundary) : 0
    faces with interpolation weights (0..1)  < 0.05        : 0
    faces with volume ratio of neighbour cells < 0.01      : 0
    faces on cells with determinant < 0.001                : 0
Successfully moved mesh
Moved mesh in = 0.95 s



Morph iteration 4
-----------------
Calculating patchDisplacement as distance to nearest surface point ...
Wanted displacement : average:0.10997141 min:3.1377989e-06 max:0.40356979
Calculated surface displacement in = 0.11 s


Detecting near surfaces ...
Overriding nearest with intersection of close gaps at 0 out of 162939 points.
Overriding displacement on features :
   implicit features    : false
   explicit features    : true
   multi-patch features : false

Detected 0 baffle edges out of 317441 edges.
Initially selected 16501 points out of 162939 for reverse attraction.
Selected 44203 points out of 162939 for reverse attraction.
Stringing feature edges : changed 61 points
Stringing feature edges : changed 2 points
Stringing feature edges : changed 0 points
Attraction:
     linear   : max:(0 0.40356979 0) avg:(-0.0030497013 0.0057308395 -0.0098811534)
     feature  : max:(-0.35435527 0.36430286 0.12287698) avg:(-0.00095491436 0.00081393933 0.0031700229)
Feature analysis : total master points:162939 attraction to :
    feature point   : 303
    feature edge    : 16156
    nearest surface : 0
    rest            : 146480

--> FOAM Warning : Displacement (-0.025040461 5.7224369e-09 -7.0086499e-09) at mesh point 1386 coord (49.806999 90 15) points through the surrounding patch faces
Smoothing displacement ...
Iteration 0
Iteration 10
Iteration 20
Iteration 30
Iteration 40
Iteration 50
Iteration 60
Iteration 70
Displacement smoothed in = 3.29 s


Moving mesh ...

Iteration 0
Moving mesh using displacement scaling : min:1  max:1
Checking faces in error :
    non-orthogonality > 65  degrees                        : 0
    faces with face pyramid volume < 1e-13                 : 0
    faces with concavity > 80  degrees                     : 0
    faces with skewness > 4   (internal) or 4   (boundary) : 0
    faces with interpolation weights (0..1)  < 0.05        : 0
    faces with volume ratio of neighbour cells < 0.01      : 0
    faces on cells with determinant < 0.001                : 0
Successfully moved mesh
Moved mesh in = 0.95 s



Morph iteration 5
-----------------
Calculating patchDisplacement as distance to nearest surface point ...
Wanted displacement : average:0.088147196 min:1.3790275e-06 max:0.33576695
Calculated surface displacement in = 0.12 s


Detecting near surfaces ...
Overriding nearest with intersection of close gaps at 0 out of 162939 points.
Overriding displacement on features :
   implicit features    : false
   explicit features    : true
   multi-patch features : false

Detected 0 baffle edges out of 317441 edges.
Initially selected 16509 points out of 162939 for reverse attraction.
Selected 44221 points out of 162939 for reverse attraction.
Stringing feature edges : changed 62 points
Stringing feature edges : changed 2 points
Stringing feature edges : changed 0 points
Attraction:
     linear   : max:(0 0.33576695 0) avg:(-0.0023345216 0.00446673 -0.007954776)
     feature  : max:(-0.33220806 0.34153393 0.092157734) avg:(-0.0008631355 0.00072877544 0.002871734)
Feature analysis : total master points:162939 attraction to :
    feature point   : 305
    feature edge    : 16159
    nearest surface : 0
    rest            : 146475

--> FOAM Warning : Displacement (-0.0225203 -1.3544292e-08 -1.9426258e-08) at mesh point 1386 coord (49.781959 90 15) points through the surrounding patch faces
Smoothing displacement ...
Iteration 0
Iteration 10
Iteration 20
Iteration 30
Iteration 40
Iteration 50
Iteration 60
Iteration 70
Displacement smoothed in = 3.32 s


Moving mesh ...

Iteration 0
Moving mesh using displacement scaling : min:1  max:1
Checking faces in error :
    non-orthogonality > 65  degrees                        : 0
    faces with face pyramid volume < 1e-13                 : 0
    faces with concavity > 80  degrees                     : 0
    faces with skewness > 4   (internal) or 4   (boundary) : 0
    faces with interpolation weights (0..1)  < 0.05        : 0
    faces with volume ratio of neighbour cells < 0.01      : 0
    faces on cells with determinant < 0.001                : 0
Successfully moved mesh
Moved mesh in = 0.94 s



Morph iteration 6
-----------------
Calculating patchDisplacement as distance to nearest surface point ...
Wanted displacement : average:0.067156271 min:7.19066e-07 max:0.26671306
Calculated surface displacement in = 0.11 s


Detecting near surfaces ...
Overriding nearest with intersection of close gaps at 0 out of 162939 points.
Overriding displacement on features :
   implicit features    : false
   explicit features    : true
   multi-patch features : false

Detected 0 baffle edges out of 317441 edges.
Initially selected 16522 points out of 162939 for reverse attraction.
Selected 44229 points out of 162939 for reverse attraction.
Stringing feature edges : changed 62 points
Stringing feature edges : changed 2 points
Stringing feature edges : changed 0 points
Attraction:
     linear   : max:(0 0.26671306 4.4408921e-16) avg:(-0.0016500773 0.0032640479 -0.0061369248)
     feature  : max:(-0.30230934 0.31079588 0.064510414) avg:(-0.00076025014 0.00062833485 0.0025337296)
Feature analysis : total master points:162939 attraction to :
    feature point   : 304
    feature edge    : 16168
    nearest surface : 0
    rest            : 146467

--> FOAM Warning : Displacement (-0.018353748 -4.1078924e-08 -2.8588899e-08) at mesh point 1386 coord (49.759439 90 15) points through the surrounding patch faces
Smoothing displacement ...
Iteration 0
Iteration 10
Iteration 20
Iteration 30
Iteration 40
Iteration 50
Iteration 60
Iteration 70
Displacement smoothed in = 3.17 s


Moving mesh ...

Iteration 0
Moving mesh using displacement scaling : min:1  max:1
Checking faces in error :
    non-orthogonality > 65  degrees                        : 0
    faces with face pyramid volume < 1e-13                 : 0
    faces with concavity > 80  degrees                     : 0
    faces with skewness > 4   (internal) or 4   (boundary) : 0
    faces with interpolation weights (0..1)  < 0.05        : 0
    faces with volume ratio of neighbour cells < 0.01      : 0
    faces on cells with determinant < 0.001                : 0
Successfully moved mesh
Moved mesh in = 0.93 s



Morph iteration 7
-----------------
Calculating patchDisplacement as distance to nearest surface point ...
Wanted displacement : average:0.048486719 min:1.1403571e-09 max:0.20660631
Calculated surface displacement in = 0.12 s


Detecting near surfaces ...
Overriding nearest with intersection of close gaps at 0 out of 162939 points.
Overriding displacement on features :
   implicit features    : false
   explicit features    : true
   multi-patch features : false

Detected 0 baffle edges out of 317441 edges.
Initially selected 16504 points out of 162939 for reverse attraction.
Selected 44192 points out of 162939 for reverse attraction.
Stringing feature edges : changed 42 points
Stringing feature edges : changed 2 points
Stringing feature edges : changed 0 points
Attraction:
     linear   : max:(-0.20660631 0 0) avg:(-0.0010506941 0.0022130545 -0.004555263)
     feature  : max:(-0.26527644 0.27272338 0.041931769) avg:(-0.00064680507 0.00052767741 0.0021591508)
Feature analysis : total master points:162939 attraction to :
    feature point   : 285
    feature edge    : 16187
    nearest surface : 0
    rest            : 146467

--> FOAM Warning : Displacement (-0.013585477 -5.9785487e-08 -2.698178e-08) at mesh point 1386 coord (49.741085 90 15) points through the surrounding patch faces
Smoothing displacement ...
Iteration 0
Iteration 10
Iteration 20
Iteration 30
Iteration 40
Iteration 50
Iteration 60
Iteration 70
Displacement smoothed in = 3.16 s


Moving mesh ...

Iteration 0
Moving mesh using displacement scaling : min:1  max:1
Checking faces in error :
    non-orthogonality > 65  degrees                        : 0
    faces with face pyramid volume < 1e-13                 : 0
    faces with concavity > 80  degrees                     : 0
    faces with skewness > 4   (internal) or 4   (boundary) : 0
    faces with interpolation weights (0..1)  < 0.05        : 0
    faces with volume ratio of neighbour cells < 0.01      : 0
    faces on cells with determinant < 0.001                : 0
Successfully moved mesh
Moved mesh in = 0.93 s



Morph iteration 8
-----------------
Calculating patchDisplacement as distance to nearest surface point ...
Wanted displacement : average:0.033034092 min:3.5008007e-07 max:0.15358212
Calculated surface displacement in = 0.11 s


Detecting near surfaces ...
Overriding nearest with intersection of close gaps at 0 out of 162939 points.
Overriding displacement on features :
   implicit features    : false
   explicit features    : true
   multi-patch features : false

Detected 0 baffle edges out of 317441 edges.
Initially selected 16497 points out of 162939 for reverse attraction.
Selected 44162 points out of 162939 for reverse attraction.
Stringing feature edges : changed 31 points
Stringing feature edges : changed 0 points
Attraction:
     linear   : max:(-0.15358212 0 0) avg:(-0.00057123983 0.0013682053 -0.003274036)
     feature  : max:(-0.22283221 0.22908764 0.025159061) avg:(-0.00052725049 0.00042922798 0.001772662)
Feature analysis : total master points:162939 attraction to :
    feature point   : 274
    feature edge    : 16196
    nearest surface : 0
    rest            : 146469

--> FOAM Warning : Displacement (-0.0091278181 -5.8644356e-08 -1.6286453e-08) at mesh point 1386 coord (49.727499 90 15) points through the surrounding patch faces
Smoothing displacement ...
Iteration 0
Iteration 10
Iteration 20
Iteration 30
Iteration 40
Iteration 50
Iteration 60
Iteration 70
Displacement smoothed in = 3.19 s


Moving mesh ...

Iteration 0
Moving mesh using displacement scaling : min:1  max:1
Checking faces in error :
    non-orthogonality > 65  degrees                        : 0
    faces with face pyramid volume < 1e-13                 : 0
    faces with concavity > 80  degrees                     : 0
    faces with skewness > 4   (internal) or 4   (boundary) : 0
    faces with interpolation weights (0..1)  < 0.05        : 0
    faces with volume ratio of neighbour cells < 0.01      : 0
    faces on cells with determinant < 0.001                : 0
Successfully moved mesh
Moved mesh in = 0.97 s



Morph iteration 9
-----------------
Calculating patchDisplacement as distance to nearest surface point ...
Wanted displacement : average:0.021714106 min:1.7041717e-07 max:0.1084541
Calculated surface displacement in = 0.11 s


Detecting near surfaces ...
Overriding nearest with intersection of close gaps at 0 out of 162939 points.
Overriding displacement on features :
   implicit features    : false
   explicit features    : true
   multi-patch features : false

Detected 0 baffle edges out of 317441 edges.
Initially selected 16474 points out of 162939 for reverse attraction.
Selected 44137 points out of 162939 for reverse attraction.
Stringing feature edges : changed 10 points
Stringing feature edges : changed 0 points
Attraction:
     linear   : max:(-0.1084541 0 0) avg:(-0.00022466248 0.00074596305 -0.0022952393)
     feature  : max:(-0.17770869 0.18269739 0.013837484) avg:(-0.00041428741 0.00032945995 0.0013866192)
Feature analysis : total master points:162939 attraction to :
    feature point   : 253
    feature edge    : 16217
    nearest surface : 0
    rest            : 146469

--> FOAM Warning : Displacement (-0.0055569934 -4.1945409e-08 -4.8651983e-09) at mesh point 1386 coord (49.718372 90 15) points through the surrounding patch faces
Smoothing displacement ...
Iteration 0
Iteration 10
Iteration 20
Iteration 30
Iteration 40
Iteration 50
Iteration 60
Iteration 70
Displacement smoothed in = 3.36 s


Moving mesh ...

Iteration 0
Moving mesh using displacement scaling : min:1  max:1
Checking faces in error :
    non-orthogonality > 65  degrees                        : 0
    faces with face pyramid volume < 1e-13                 : 0
    faces with concavity > 80  degrees                     : 0
    faces with skewness > 4   (internal) or 4   (boundary) : 0
    faces with interpolation weights (0..1)  < 0.05        : 0
    faces with volume ratio of neighbour cells < 0.01      : 0
    faces on cells with determinant < 0.001                : 0
Successfully moved mesh
Moved mesh in = 0.96 s



Morph iteration 10
-----------------
Calculating patchDisplacement as distance to nearest surface point ...
Wanted displacement : average:0.014401823 min:3.6127014e-07 max:0.078999134
Calculated surface displacement in = 0.1 s


Detecting near surfaces ...
Overriding nearest with intersection of close gaps at 0 out of 162939 points.
Overriding displacement on features :
   implicit features    : false
   explicit features    : true
   multi-patch features : false

Detected 0 baffle edges out of 317441 edges.
Initially selected 16471 points out of 162939 for reverse attraction.
Selected 44134 points out of 162939 for reverse attraction.
Stringing feature edges : changed 7 points
Stringing feature edges : changed 0 points
Attraction:
     linear   : max:(0 0.078999134 0) avg:(-4.6398145e-06 0.0003323224 -0.0015764426)
     feature  : max:(0.022412259 0.22253854 0) avg:(-0.00030490271 0.00024359125 0.0010241612)
Feature analysis : total master points:162939 attraction to :
    feature point   : 250
    feature edge    : 16220
    nearest surface : 0
    rest            : 146469

--> FOAM Warning : Displacement (-0.0030616442 -2.2473139e-08 1.2790926e-09) at mesh point 1386 coord (49.712815 90 15) points through the surrounding patch faces
Smoothing displacement ...
Iteration 0
Iteration 10
Iteration 20
Iteration 30
Iteration 40
Iteration 50
Iteration 60
Iteration 70
Displacement smoothed in = 3.19 s


Moving mesh ...

Iteration 0
Moving mesh using displacement scaling : min:1  max:1
Checking faces in error :
    non-orthogonality > 65  degrees                        : 0
    faces with face pyramid volume < 1e-13                 : 0
    faces with concavity > 80  degrees                     : 0
    faces with skewness > 4   (internal) or 4   (boundary) : 0
    faces with interpolation weights (0..1)  < 0.05        : 0
    faces with volume ratio of neighbour cells < 0.01      : 0
    faces on cells with determinant < 0.001                : 0
Successfully moved mesh
Moved mesh in = 0.94 s



Morph iteration 11
-----------------
Calculating patchDisplacement as distance to nearest surface point ...
Wanted displacement : average:0.0094762168 min:8.4518632e-09 max:0.070424575
Calculated surface displacement in = 0.1 s


Detecting near surfaces ...
Overriding nearest with intersection of close gaps at 0 out of 162939 points.
Overriding displacement on features :
   implicit features    : false
   explicit features    : true
   multi-patch features : false

Detected 1 baffle edges out of 317441 edges.
Initially selected 16469 points out of 162939 for reverse attraction.
Selected 44130 points out of 162939 for reverse attraction.
Stringing feature edges : changed 7 points
Stringing feature edges : changed 0 points
Attraction:
     linear   : max:(0 0.070424575 0) avg:(0.00010790402 9.0723533e-05 -0.0010561012)
     feature  : max:(0.010084622 0.15522063 0) avg:(-0.00020963876 0.0001670902 0.00070690475)
Feature analysis : total master points:162939 attraction to :
    feature point   : 250
    feature edge    : 16220
    nearest surface : 0
    rest            : 146469

--> FOAM Warning : Displacement (-0.0015285885 -9.1688108e-09 2.3623832e-09) at mesh point 1386 coord (49.709753 90 15) points through the surrounding patch faces
Smoothing displacement ...
Iteration 0
Iteration 10
Iteration 20
Iteration 30
Iteration 40
Iteration 50
Iteration 60
Iteration 70
Displacement smoothed in = 3.18 s


Moving mesh ...

Iteration 0
Moving mesh using displacement scaling : min:1  max:1
Checking faces in error :
    non-orthogonality > 65  degrees                        : 0
    faces with face pyramid volume < 1e-13                 : 0
    faces with concavity > 80  degrees                     : 0
    faces with skewness > 4   (internal) or 4   (boundary) : 0
    faces with interpolation weights (0..1)  < 0.05        : 0
    faces with volume ratio of neighbour cells < 0.01      : 0
    faces on cells with determinant < 0.001                : 0
Successfully moved mesh
Moved mesh in = 0.98 s



Morph iteration 12
-----------------
Calculating patchDisplacement as distance to nearest surface point ...
Wanted displacement : average:0.0062273638 min:1.1709773e-08 max:0.05708333
Calculated surface displacement in = 0.11 s


Detecting near surfaces ...
Overriding nearest with intersection of close gaps at 0 out of 162939 points.
Overriding displacement on features :
   implicit features    : false
   explicit features    : true
   multi-patch features : false

Detected 1 baffle edges out of 317441 edges.
Initially selected 16469 points out of 162939 for reverse attraction.
Selected 44130 points out of 162939 for reverse attraction.
Stringing feature edges : changed 7 points
Stringing feature edges : changed 0 points
Attraction:
     linear   : max:(0 0.05708333 0) avg:(0.0001411315 -2.4407835e-05 -0.00067892623)
     feature  : max:(0.10655111 -0.009051298 0.0027720995) avg:(-0.00013265321 0.00010565279 0.00044933876)
Feature analysis : total master points:162939 attraction to :
    feature point   : 250
    feature edge    : 16220
    nearest surface : 0
    rest            : 146469

--> FOAM Warning : Displacement (-2.4695856e-05 -7.1048382e-06 1.6289599e-05) at mesh point 550952 coord (125.93802 150.93735 29.999109) points through the surrounding patch faces
Smoothing displacement ...
Iteration 0
Iteration 10
Iteration 20
Iteration 30
Iteration 40
Iteration 50
Iteration 60
Iteration 70
Displacement smoothed in = 3.14 s


Moving mesh ...

Iteration 0
Moving mesh using displacement scaling : min:1  max:1
Checking faces in error :
    non-orthogonality > 65  degrees                        : 0
    faces with face pyramid volume < 1e-13                 : 0
    faces with concavity > 80  degrees                     : 0
    faces with skewness > 4   (internal) or 4   (boundary) : 0
    faces with interpolation weights (0..1)  < 0.05        : 0
    faces with volume ratio of neighbour cells < 0.01      : 0
    faces on cells with determinant < 0.001                : 0
Successfully moved mesh
Moved mesh in = 0.96 s



Morph iteration 13
-----------------
Calculating patchDisplacement as distance to nearest surface point ...
Wanted displacement : average:0.0041191823 min:2.9031696e-08 max:0.050493927
Calculated surface displacement in = 0.1 s


Detecting near surfaces ...
Overriding nearest with intersection of close gaps at 0 out of 162939 points.
Overriding displacement on features :
   implicit features    : false
   explicit features    : true
   multi-patch features : false

Detected 5 baffle edges out of 317441 edges.
Initially selected 16469 points out of 162939 for reverse attraction.
Selected 44130 points out of 162939 for reverse attraction.
Stringing feature edges : changed 6 points
Stringing feature edges : changed 0 points
Attraction:
     linear   : max:(0.050493927 0 0) avg:(0.00012566625 -5.9498451e-05 -0.0004074554)
     feature  : max:(0.07690309 0.076902988 0.0031116817) avg:(-7.6245406e-05 6.0984697e-05 0.00025850907)
Feature analysis : total master points:162939 attraction to :
    feature point   : 248
    feature edge    : 16222
    nearest surface : 0
    rest            : 146469

--> FOAM Warning : Displacement (-5.0431976e-06 -2.3917647e-06 1.5299271e-05) at mesh point 2425 coord (125.00012 134.99997 29.999895) points through the surrounding patch faces
Smoothing displacement ...
Iteration 0
Iteration 10
Iteration 20
Iteration 30
Iteration 40
Iteration 50
Iteration 60
Iteration 70
Displacement smoothed in = 3.16 s


Moving mesh ...

Iteration 0
Moving mesh using displacement scaling : min:1  max:1
Checking faces in error :
    non-orthogonality > 65  degrees                        : 0
    faces with face pyramid volume < 1e-13                 : 0
    faces with concavity > 80  degrees                     : 0
    faces with skewness > 4   (internal) or 4   (boundary) : 0
    faces with interpolation weights (0..1)  < 0.05        : 0
    faces with volume ratio of neighbour cells < 0.01      : 0
    faces on cells with determinant < 0.001                : 0
Successfully moved mesh
Moved mesh in = 0.93 s



Morph iteration 14
-----------------
Calculating patchDisplacement as distance to nearest surface point ...
Wanted displacement : average:0.0026109979 min:5.338137e-09 max:0.037939876
Calculated surface displacement in = 0.11 s


Detecting near surfaces ...
Overriding nearest with intersection of close gaps at 0 out of 162939 points.
Overriding displacement on features :
   implicit features    : false
   explicit features    : true
   multi-patch features : false

Detected 5 baffle edges out of 317441 edges.
Initially selected 16469 points out of 162939 for reverse attraction.
Selected 44130 points out of 162939 for reverse attraction.
Stringing feature edges : changed 5 points
Stringing feature edges : changed 0 points
Attraction:
     linear   : max:(0 -0.037939876 0) avg:(8.9156624e-05 -5.3846192e-05 -0.00022044301)
     feature  : max:(0 -0.002167437 0.075524544) avg:(-3.8500564e-05 3.0727251e-05 0.00013214285)
Feature analysis : total master points:162939 attraction to :
    feature point   : 248
    feature edge    : 16222
    nearest surface : 0
    rest            : 146469

--> FOAM Warning : Displacement (-3.8956475e-09 -3.8782617e-05 5.0347338e-11) at mesh point 549271 coord (230.93786 91.277412 15) points through the surrounding patch faces
Smoothing displacement ...
Iteration 0
Iteration 10
Iteration 20
Iteration 30
Iteration 40
Iteration 50
Iteration 60
Iteration 70
Displacement smoothed in = 3.45 s


Moving mesh ...

Iteration 0
Moving mesh using displacement scaling : min:1  max:1
Checking faces in error :
    non-orthogonality > 65  degrees                        : 0
    faces with face pyramid volume < 1e-13                 : 0
    faces with concavity > 80  degrees                     : 1
    faces with skewness > 4   (internal) or 4   (boundary) : 0
    faces with interpolation weights (0..1)  < 0.05        : 0
    faces with volume ratio of neighbour cells < 0.01      : 0
    faces on cells with determinant < 0.001                : 0

Iteration 1
Moving mesh using displacement scaling : min:0.75  max:1
Checking faces in error :
    non-orthogonality > 65  degrees                        : 0
    faces with face pyramid volume < 1e-13                 : 0
    faces with concavity > 80  degrees                     : 1
    faces with skewness > 4   (internal) or 4   (boundary) : 0
    faces with interpolation weights (0..1)  < 0.05        : 0
    faces with volume ratio of neighbour cells < 0.01      : 0
    faces on cells with determinant < 0.001                : 0

Iteration 2
Moving mesh using displacement scaling : min:0.5625  max:1
Checking faces in error :
    non-orthogonality > 65  degrees                        : 0
    faces with face pyramid volume < 1e-13                 : 0
    faces with concavity > 80  degrees                     : 1
    faces with skewness > 4   (internal) or 4   (boundary) : 0
    faces with interpolation weights (0..1)  < 0.05        : 0
    faces with volume ratio of neighbour cells < 0.01      : 0
    faces on cells with determinant < 0.001                : 0

Iteration 3
Moving mesh using displacement scaling : min:0.421875  max:1
Checking faces in error :
    non-orthogonality > 65  degrees                        : 0
    faces with face pyramid volume < 1e-13                 : 0
    faces with concavity > 80  degrees                     : 0
    faces with skewness > 4   (internal) or 4   (boundary) : 0
    faces with interpolation weights (0..1)  < 0.05        : 0
    faces with volume ratio of neighbour cells < 0.01      : 0
    faces on cells with determinant < 0.001                : 0
Successfully moved mesh
Moved mesh in = 2.85 s



Morph iteration 15
-----------------
Calculating patchDisplacement as distance to nearest surface point ...
Wanted displacement : average:0.0014690404 min:1.7571011e-10 max:0.023356463
Calculated surface displacement in = 0.1 s


Detecting near surfaces ...
Overriding nearest with intersection of close gaps at 0 out of 162939 points.
Overriding displacement on features :
   implicit features    : false
   explicit features    : true
   multi-patch features : false

Detected 4 baffle edges out of 317441 edges.
Initially selected 16469 points out of 162939 for reverse attraction.
Selected 44130 points out of 162939 for reverse attraction.
Stringing feature edges : changed 5 points
Stringing feature edges : changed 0 points
Attraction:
     linear   : max:(0 -0.023356463 0) avg:(5.2083063e-05 -3.4711621e-05 -0.00010330605)
     feature  : max:(0 -0.0014816716 0.057602216) avg:(-1.6575506e-05 1.3324312e-05 5.7990617e-05)
Feature analysis : total master points:162939 attraction to :
    feature point   : 248
    feature edge    : 16222
    nearest surface : 0
    rest            : 146469

--> FOAM Warning : Displacement (-1.4668882e-08 -5.9357286e-05 -4.2499851e-11) at mesh point 549271 coord (230.93786 91.277373 15) points through the surrounding patch faces
Smoothing displacement ...
Iteration 0
Iteration 10
Iteration 20
Iteration 30
Iteration 40
Iteration 50
Iteration 60
Iteration 70
Displacement smoothed in = 3.22 s


Moving mesh ...

Iteration 0
Moving mesh using displacement scaling : min:1  max:1
Checking faces in error :
    non-orthogonality > 65  degrees                        : 0
    faces with face pyramid volume < 1e-13                 : 0
    faces with concavity > 80  degrees                     : 2
    faces with skewness > 4   (internal) or 4   (boundary) : 0
    faces with interpolation weights (0..1)  < 0.05        : 0
    faces with volume ratio of neighbour cells < 0.01      : 0
    faces on cells with determinant < 0.001                : 0

Iteration 1
Moving mesh using displacement scaling : min:0.75  max:1
Checking faces in error :
    non-orthogonality > 65  degrees                        : 0
    faces with face pyramid volume < 1e-13                 : 0
    faces with concavity > 80  degrees                     : 2
    faces with skewness > 4   (internal) or 4   (boundary) : 0
    faces with interpolation weights (0..1)  < 0.05        : 0
    faces with volume ratio of neighbour cells < 0.01      : 0
    faces on cells with determinant < 0.001                : 0

Iteration 2
Moving mesh using displacement scaling : min:0.5625  max:1
Checking faces in error :
    non-orthogonality > 65  degrees                        : 0
    faces with face pyramid volume < 1e-13                 : 0
    faces with concavity > 80  degrees                     : 2
    faces with skewness > 4   (internal) or 4   (boundary) : 0
    faces with interpolation weights (0..1)  < 0.05        : 0
    faces with volume ratio of neighbour cells < 0.01      : 0
    faces on cells with determinant < 0.001                : 0

Iteration 3
Moving mesh using displacement scaling : min:0.421875  max:1
Checking faces in error :
    non-orthogonality > 65  degrees                        : 0
    faces with face pyramid volume < 1e-13                 : 0
    faces with concavity > 80  degrees                     : 2
    faces with skewness > 4   (internal) or 4   (boundary) : 0
    faces with interpolation weights (0..1)  < 0.05        : 0
    faces with volume ratio of neighbour cells < 0.01      : 0
    faces on cells with determinant < 0.001                : 0

Iteration 4
Moving mesh using displacement scaling : min:0.31640625  max:1
Checking faces in error :
    non-orthogonality > 65  degrees                        : 0
    faces with face pyramid volume < 1e-13                 : 0
    faces with concavity > 80  degrees                     : 1
    faces with skewness > 4   (internal) or 4   (boundary) : 0
    faces with interpolation weights (0..1)  < 0.05        : 0
    faces with volume ratio of neighbour cells < 0.01      : 0
    faces on cells with determinant < 0.001                : 0

Iteration 5
Moving mesh using displacement scaling : min:0.23730469  max:1
Checking faces in error :
    non-orthogonality > 65  degrees                        : 0
    faces with face pyramid volume < 1e-13                 : 0
    faces with concavity > 80  degrees                     : 1
    faces with skewness > 4   (internal) or 4   (boundary) : 0
    faces with interpolation weights (0..1)  < 0.05        : 0
    faces with volume ratio of neighbour cells < 0.01      : 0
    faces on cells with determinant < 0.001                : 0

Iteration 6
Moving mesh using displacement scaling : min:0.17797852  max:1
Checking faces in error :
    non-orthogonality > 65  degrees                        : 0
    faces with face pyramid volume < 1e-13                 : 0
    faces with concavity > 80  degrees                     : 1
    faces with skewness > 4   (internal) or 4   (boundary) : 0
    faces with interpolation weights (0..1)  < 0.05        : 0
    faces with volume ratio of neighbour cells < 0.01      : 0
    faces on cells with determinant < 0.001                : 0

Iteration 7
Moving mesh using displacement scaling : min:0.13348389  max:1
Checking faces in error :
    non-orthogonality > 65  degrees                        : 0
    faces with face pyramid volume < 1e-13                 : 0
    faces with concavity > 80  degrees                     : 0
    faces with skewness > 4   (internal) or 4   (boundary) : 0
    faces with interpolation weights (0..1)  < 0.05        : 0
    faces with volume ratio of neighbour cells < 0.01      : 0
    faces on cells with determinant < 0.001                : 0
Successfully moved mesh
Moved mesh in = 4.77 s



Morph iteration 16
-----------------
Calculating patchDisplacement as distance to nearest surface point ...
Wanted displacement : average:0.00069635439 min:7.5075945e-10 max:0.013686615
Calculated surface displacement in = 0.09 s


Detecting near surfaces ...
Overriding nearest with intersection of close gaps at 0 out of 162939 points.
Overriding displacement on features :
   implicit features    : false
   explicit features    : true
   multi-patch features : false

Detected 5 baffle edges out of 317441 edges.
Initially selected 16469 points out of 162939 for reverse attraction.
Selected 44130 points out of 162939 for reverse attraction.
Stringing feature edges : changed 4 points
Stringing feature edges : changed 0 points
Attraction:
     linear   : max:(0 0 -0.013686615) avg:(2.4712037e-05 -1.7325377e-05 -3.9919795e-05)
     feature  : max:(0 -0.001323455 0.052681276) avg:(-5.7687293e-06 4.9601459e-06 2.1187964e-05)
Feature analysis : total master points:162939 attraction to :
    feature point   : 247
    feature edge    : 16223
    nearest surface : 0
    rest            : 146469

--> FOAM Warning : Displacement (-1.0468566e-08 -2.895961e-05 -1.1636195e-11) at mesh point 549271 coord (230.93786 91.277314 15) points through the surrounding patch faces
Smoothing displacement ...
Iteration 0
Iteration 10
Iteration 20
Iteration 30
Iteration 40
Iteration 50
Iteration 60
Iteration 70
Displacement smoothed in = 3.2 s


Moving mesh ...

Iteration 0
Moving mesh using displacement scaling : min:1  max:1
Checking faces in error :
    non-orthogonality > 65  degrees                        : 0
    faces with face pyramid volume < 1e-13                 : 0
    faces with concavity > 80  degrees                     : 2
    faces with skewness > 4   (internal) or 4   (boundary) : 0
    faces with interpolation weights (0..1)  < 0.05        : 0
    faces with volume ratio of neighbour cells < 0.01      : 0
    faces on cells with determinant < 0.001                : 0

Iteration 1
Moving mesh using displacement scaling : min:0.75  max:1
Checking faces in error :
    non-orthogonality > 65  degrees                        : 0
    faces with face pyramid volume < 1e-13                 : 0
    faces with concavity > 80  degrees                     : 2
    faces with skewness > 4   (internal) or 4   (boundary) : 0
    faces with interpolation weights (0..1)  < 0.05        : 0
    faces with volume ratio of neighbour cells < 0.01      : 0
    faces on cells with determinant < 0.001                : 0

Iteration 2
Moving mesh using displacement scaling : min:0.5625  max:1
Checking faces in error :
    non-orthogonality > 65  degrees                        : 0
    faces with face pyramid volume < 1e-13                 : 0
    faces with concavity > 80  degrees                     : 2
    faces with skewness > 4   (internal) or 4   (boundary) : 0
    faces with interpolation weights (0..1)  < 0.05        : 0
    faces with volume ratio of neighbour cells < 0.01      : 0
    faces on cells with determinant < 0.001                : 0

Iteration 3
Moving mesh using displacement scaling : min:0.421875  max:1
Checking faces in error :
    non-orthogonality > 65  degrees                        : 0
    faces with face pyramid volume < 1e-13                 : 0
    faces with concavity > 80  degrees                     : 2
    faces with skewness > 4   (internal) or 4   (boundary) : 0
    faces with interpolation weights (0..1)  < 0.05        : 0
    faces with volume ratio of neighbour cells < 0.01      : 0
    faces on cells with determinant < 0.001                : 0

Iteration 4
Moving mesh using displacement scaling : min:0.31640625  max:1
Checking faces in error :
    non-orthogonality > 65  degrees                        : 0
    faces with face pyramid volume < 1e-13                 : 0
    faces with concavity > 80  degrees                     : 2
    faces with skewness > 4   (internal) or 4   (boundary) : 0
    faces with interpolation weights (0..1)  < 0.05        : 0
    faces with volume ratio of neighbour cells < 0.01      : 0
    faces on cells with determinant < 0.001                : 0

Iteration 5
Moving mesh using displacement scaling : min:0.23730469  max:1
Checking faces in error :
    non-orthogonality > 65  degrees                        : 0
    faces with face pyramid volume < 1e-13                 : 0
    faces with concavity > 80  degrees                     : 2
    faces with skewness > 4   (internal) or 4   (boundary) : 0
    faces with interpolation weights (0..1)  < 0.05        : 0
    faces with volume ratio of neighbour cells < 0.01      : 0
    faces on cells with determinant < 0.001                : 0

Iteration 6
Moving mesh using displacement scaling : min:0.17797852  max:1
Checking faces in error :
    non-orthogonality > 65  degrees                        : 0
    faces with face pyramid volume < 1e-13                 : 0
    faces with concavity > 80  degrees                     : 2
    faces with skewness > 4   (internal) or 4   (boundary) : 0
    faces with interpolation weights (0..1)  < 0.05        : 0
    faces with volume ratio of neighbour cells < 0.01      : 0
    faces on cells with determinant < 0.001                : 0

Iteration 7
Moving mesh using displacement scaling : min:0.13348389  max:1
Checking faces in error :
    non-orthogonality > 65  degrees                        : 0
    faces with face pyramid volume < 1e-13                 : 0
    faces with concavity > 80  degrees                     : 2
    faces with skewness > 4   (internal) or 4   (boundary) : 0
    faces with interpolation weights (0..1)  < 0.05        : 0
    faces with volume ratio of neighbour cells < 0.01      : 0
    faces on cells with determinant < 0.001                : 0

Iteration 8
Displacement scaling for error reduction set to 0.
Moving mesh using displacement scaling : min:0.10011292  max:1
Checking faces in error :
    non-orthogonality > 65  degrees                        : 0
    faces with face pyramid volume < 1e-13                 : 0
    faces with concavity > 80  degrees                     : 1
    faces with skewness > 4   (internal) or 4   (boundary) : 0
    faces with interpolation weights (0..1)  < 0.05        : 0
    faces with volume ratio of neighbour cells < 0.01      : 0
    faces on cells with determinant < 0.001                : 0

Iteration 9
Moving mesh using displacement scaling : min:0  max:1
Checking faces in error :
    non-orthogonality > 65  degrees                        : 0
    faces with face pyramid volume < 1e-13                 : 0
    faces with concavity > 80  degrees                     : 0
    faces with skewness > 4   (internal) or 4   (boundary) : 0
    faces with interpolation weights (0..1)  < 0.05        : 0
    faces with volume ratio of neighbour cells < 0.01      : 0
    faces on cells with determinant < 0.001                : 0
Successfully moved mesh
Moved mesh in = 5.91 s



Morph iteration 17
-----------------
Calculating patchDisplacement as distance to nearest surface point ...
Wanted displacement : average:0.00026325656 min:1.5931079e-10 max:0.010881942
Calculated surface displacement in = 0.1 s


Detecting near surfaces ...
Overriding nearest with intersection of close gaps at 0 out of 162939 points.
Overriding displacement on features :
   implicit features    : false
   explicit features    : true
   multi-patch features : false

Detected 2 baffle edges out of 317441 edges.
Initially selected 16469 points out of 162939 for reverse attraction.
Selected 44130 points out of 162939 for reverse attraction.
Stringing feature edges : changed 6 points
Stringing feature edges : changed 0 points
Attraction:
     linear   : max:(0 0 -0.010881942) avg:(9.1206761e-06 -6.6608371e-06 -1.1882215e-05)
     feature  : max:(0 -0.001323455 0.052681276) avg:(-1.2833999e-06 1.0032162e-06 6.2232088e-06)
Feature analysis : total master points:162939 attraction to :
    feature point   : 249
    feature edge    : 16221
    nearest surface : 0
    rest            : 146469

--> FOAM Warning : Displacement (-3.7736386e-09 -8.4491543e-06 -1.1685772e-12) at mesh point 549271 coord (230.93786 91.277285 15) points through the surrounding patch faces
Smoothing displacement ...
Iteration 0
Iteration 10
Iteration 20
Iteration 30
Iteration 40
Iteration 50
Iteration 60
Iteration 70
Displacement smoothed in = 3.17 s


Moving mesh ...

Iteration 0
Moving mesh using displacement scaling : min:1  max:1
Checking faces in error :
    non-orthogonality > 65  degrees                        : 0
    faces with face pyramid volume < 1e-13                 : 0
    faces with concavity > 80  degrees                     : 2
    faces with skewness > 4   (internal) or 4   (boundary) : 0
    faces with interpolation weights (0..1)  < 0.05        : 0
    faces with volume ratio of neighbour cells < 0.01      : 0
    faces on cells with determinant < 0.001                : 0

Iteration 1
Moving mesh using displacement scaling : min:0.75  max:1
Checking faces in error :
    non-orthogonality > 65  degrees                        : 0
    faces with face pyramid volume < 1e-13                 : 0
    faces with concavity > 80  degrees                     : 2
    faces with skewness > 4   (internal) or 4   (boundary) : 0
    faces with interpolation weights (0..1)  < 0.05        : 0
    faces with volume ratio of neighbour cells < 0.01      : 0
    faces on cells with determinant < 0.001                : 0

Iteration 2
Moving mesh using displacement scaling : min:0.5625  max:1
Checking faces in error :
    non-orthogonality > 65  degrees                        : 0
    faces with face pyramid volume < 1e-13                 : 0
    faces with concavity > 80  degrees                     : 2
    faces with skewness > 4   (internal) or 4   (boundary) : 0
    faces with interpolation weights (0..1)  < 0.05        : 0
    faces with volume ratio of neighbour cells < 0.01      : 0
    faces on cells with determinant < 0.001                : 0

Iteration 3
Moving mesh using displacement scaling : min:0.421875  max:1
Checking faces in error :
    non-orthogonality > 65  degrees                        : 0
    faces with face pyramid volume < 1e-13                 : 0
    faces with concavity > 80  degrees                     : 2
    faces with skewness > 4   (internal) or 4   (boundary) : 0
    faces with interpolation weights (0..1)  < 0.05        : 0
    faces with volume ratio of neighbour cells < 0.01      : 0
    faces on cells with determinant < 0.001                : 0

Iteration 4
Moving mesh using displacement scaling : min:0.31640625  max:1
Checking faces in error :
    non-orthogonality > 65  degrees                        : 0
    faces with face pyramid volume < 1e-13                 : 0
    faces with concavity > 80  degrees                     : 2
    faces with skewness > 4   (internal) or 4   (boundary) : 0
    faces with interpolation weights (0..1)  < 0.05        : 0
    faces with volume ratio of neighbour cells < 0.01      : 0
    faces on cells with determinant < 0.001                : 0

Iteration 5
Moving mesh using displacement scaling : min:0.23730469  max:1
Checking faces in error :
    non-orthogonality > 65  degrees                        : 0
    faces with face pyramid volume < 1e-13                 : 0
    faces with concavity > 80  degrees                     : 2
    faces with skewness > 4   (internal) or 4   (boundary) : 0
    faces with interpolation weights (0..1)  < 0.05        : 0
    faces with volume ratio of neighbour cells < 0.01      : 0
    faces on cells with determinant < 0.001                : 0

Iteration 6
Moving mesh using displacement scaling : min:0.17797852  max:1
Checking faces in error :
    non-orthogonality > 65  degrees                        : 0
    faces with face pyramid volume < 1e-13                 : 0
    faces with concavity > 80  degrees                     : 2
    faces with skewness > 4   (internal) or 4   (boundary) : 0
    faces with interpolation weights (0..1)  < 0.05        : 0
    faces with volume ratio of neighbour cells < 0.01      : 0
    faces on cells with determinant < 0.001                : 0

Iteration 7
Moving mesh using displacement scaling : min:0.13348389  max:1
Checking faces in error :
    non-orthogonality > 65  degrees                        : 0
    faces with face pyramid volume < 1e-13                 : 0
    faces with concavity > 80  degrees                     : 2
    faces with skewness > 4   (internal) or 4   (boundary) : 0
    faces with interpolation weights (0..1)  < 0.05        : 0
    faces with volume ratio of neighbour cells < 0.01      : 0
    faces on cells with determinant < 0.001                : 0

Iteration 8
Displacement scaling for error reduction set to 0.
Moving mesh using displacement scaling : min:0.10011292  max:1
Checking faces in error :
    non-orthogonality > 65  degrees                        : 0
    faces with face pyramid volume < 1e-13                 : 0
    faces with concavity > 80  degrees                     : 2
    faces with skewness > 4   (internal) or 4   (boundary) : 0
    faces with interpolation weights (0..1)  < 0.05        : 0
    faces with volume ratio of neighbour cells < 0.01      : 0
    faces on cells with determinant < 0.001                : 0

Iteration 9
Moving mesh using displacement scaling : min:0  max:1
Checking faces in error :
    non-orthogonality > 65  degrees                        : 0
    faces with face pyramid volume < 1e-13                 : 0
    faces with concavity > 80  degrees                     : 0
    faces with skewness > 4   (internal) or 4   (boundary) : 0
    faces with interpolation weights (0..1)  < 0.05        : 0
    faces with volume ratio of neighbour cells < 0.01      : 0
    faces on cells with determinant < 0.001                : 0
Successfully moved mesh
Moved mesh in = 5.83 s



Morph iteration 18
-----------------
Calculating patchDisplacement as distance to nearest surface point ...
Wanted displacement : average:7.2938389e-05 min:2.194156e-11 max:0.0087795654
Calculated surface displacement in = 0.1 s


Detecting near surfaces ...
Overriding nearest with intersection of close gaps at 0 out of 162939 points.
Overriding displacement on features :
   implicit features    : false
   explicit features    : true
   multi-patch features : false

Detected 2 baffle edges out of 317441 edges.
Initially selected 16469 points out of 162939 for reverse attraction.
Selected 44130 points out of 162939 for reverse attraction.
Stringing feature edges : changed 6 points
Stringing feature edges : changed 0 points
Attraction:
     linear   : max:(0 0 -0.0087795654) avg:(2.477101e-06 -1.7924236e-06 -2.4296254e-06)
     feature  : max:(0 -0.001323455 0.052681276) avg:(3.0266937e-08 9.9228697e-08 1.5568151e-06)
Feature analysis : total master points:162939 attraction to :
    feature point   : 249
    feature edge    : 16221
    nearest surface : 0
    rest            : 146469

--> FOAM Warning : Displacement (-8.2220729e-10 -1.4328856e-06 -4.2007199e-14) at mesh point 549271 coord (230.93786 91.277277 15) points through the surrounding patch faces
Smoothing displacement ...
Iteration 0
Iteration 10
Iteration 20
Iteration 30
Iteration 40
Iteration 50
Iteration 60
Iteration 70
Displacement smoothed in = 3.27 s


Moving mesh ...

Iteration 0
Moving mesh using displacement scaling : min:1  max:1
Checking faces in error :
    non-orthogonality > 65  degrees                        : 0
    faces with face pyramid volume < 1e-13                 : 0
    faces with concavity > 80  degrees                     : 2
    faces with skewness > 4   (internal) or 4   (boundary) : 0
    faces with interpolation weights (0..1)  < 0.05        : 0
    faces with volume ratio of neighbour cells < 0.01      : 0
    faces on cells with determinant < 0.001                : 0

Iteration 1
Moving mesh using displacement scaling : min:0.75  max:1
Checking faces in error :
    non-orthogonality > 65  degrees                        : 0
    faces with face pyramid volume < 1e-13                 : 0
    faces with concavity > 80  degrees                     : 2
    faces with skewness > 4   (internal) or 4   (boundary) : 0
    faces with interpolation weights (0..1)  < 0.05        : 0
    faces with volume ratio of neighbour cells < 0.01      : 0
    faces on cells with determinant < 0.001                : 0

Iteration 2
Moving mesh using displacement scaling : min:0.5625  max:1
Checking faces in error :
    non-orthogonality > 65  degrees                        : 0
    faces with face pyramid volume < 1e-13                 : 0
    faces with concavity > 80  degrees                     : 2
    faces with skewness > 4   (internal) or 4   (boundary) : 0
    faces with interpolation weights (0..1)  < 0.05        : 0
    faces with volume ratio of neighbour cells < 0.01      : 0
    faces on cells with determinant < 0.001                : 0

Iteration 3
Moving mesh using displacement scaling : min:0.421875  max:1
Checking faces in error :
    non-orthogonality > 65  degrees                        : 0
    faces with face pyramid volume < 1e-13                 : 0
    faces with concavity > 80  degrees                     : 2
    faces with skewness > 4   (internal) or 4   (boundary) : 0
    faces with interpolation weights (0..1)  < 0.05        : 0
    faces with volume ratio of neighbour cells < 0.01      : 0
    faces on cells with determinant < 0.001                : 0

Iteration 4
Moving mesh using displacement scaling : min:0.31640625  max:1
Checking faces in error :
    non-orthogonality > 65  degrees                        : 0
    faces with face pyramid volume < 1e-13                 : 0
    faces with concavity > 80  degrees                     : 2
    faces with skewness > 4   (internal) or 4   (boundary) : 0
    faces with interpolation weights (0..1)  < 0.05        : 0
    faces with volume ratio of neighbour cells < 0.01      : 0
    faces on cells with determinant < 0.001                : 0

Iteration 5
Moving mesh using displacement scaling : min:0.23730469  max:1
Checking faces in error :
    non-orthogonality > 65  degrees                        : 0
    faces with face pyramid volume < 1e-13                 : 0
    faces with concavity > 80  degrees                     : 2
    faces with skewness > 4   (internal) or 4   (boundary) : 0
    faces with interpolation weights (0..1)  < 0.05        : 0
[...]
    non-orthogonality > 65  degrees                        : 0
    faces with face pyramid volume < 1e-13                 : 0
    faces with concavity > 80  degrees                     : 0
    faces with skewness > 4   (internal) or 4   (boundary) : 0
    faces with interpolation weights (0..1)  < 0.05        : 0
    faces with volume ratio of neighbour cells < 0.01      : 0
    faces on cells with determinant < 0.001                : 0
displacementMedialAxis : Successfully moved mesh
displacementMedialAxis : Finished moving mesh ...
truncateDisplacement : Unextruded 0 faces due to non-consecutive vertices being extruded.
truncateDisplacement : Unextruded 0 faces due to stringed edges with inconsistent extrusion.

Setting up information for layer truncation ...

Checking mesh with layer ...
Checking faces in error :
    non-orthogonality > 65  degrees                        : 1
    faces with face pyramid volume < 1e-13                 : 0
    faces with concavity > 80  degrees                     : 0
    faces with skewness > 4   (internal) or 4   (boundary) : 0
    faces with interpolation weights (0..1)  < 0.05        : 5
    faces with volume ratio of neighbour cells < 0.01      : 0
    faces on cells with determinant < 0.001                : 0
Detected 6 illegal faces (concave, zero area or negative cell pyramid volume)
Extruding 141292 out of 141369 faces (99.945533%). Removed extrusion at 6 faces.
Added 353937 out of 424107 cells (83.454647%).


Layer addition iteration 4
--------------------------

Determining displacement for added points according to pointNormal ...
Detected 0 points with point normal pointing through faces.
Reset displacement at 0 points to average of surrounding points.

displacementMedialAxis : Smoothing using Medial Axis ...
displacementMedialAxis : Reducing layer thickness at 8273 nodes where thickness to medial axis distance is large 
displacementMedialAxis : Removing isolated regions ...
displacementMedialAxis : Number of isolated points extrusion stopped : 5
displacementMedialAxis : Smoothing field ...
    Iteration 0   residual 0.011271088
displacementMedialAxis : Moving mesh ...
displacementMedialAxis : Iteration 0
Moving mesh using displacement scaling : min:1  max:1
Checking faces in error :
    non-orthogonality > 65  degrees                        : 15
    faces with face pyramid volume < 1e-13                 : 0
    faces with concavity > 80  degrees                     : 0
    faces with skewness > 4   (internal) or 4   (boundary) : 0
    faces with interpolation weights (0..1)  < 0.05        : 0
    faces with volume ratio of neighbour cells < 0.01      : 0
    faces on cells with determinant < 0.001                : 0
displacementMedialAxis : Iteration 1
Moving mesh using displacement scaling : min:0.75  max:1
Checking faces in error :
    non-orthogonality > 65  degrees                        : 0
    faces with face pyramid volume < 1e-13                 : 0
    faces with concavity > 80  degrees                     : 0
    faces with skewness > 4   (internal) or 4   (boundary) : 0
    faces with interpolation weights (0..1)  < 0.05        : 0
    faces with volume ratio of neighbour cells < 0.01      : 0
    faces on cells with determinant < 0.001                : 0
displacementMedialAxis : Successfully moved mesh
displacementMedialAxis : Finished moving mesh ...
truncateDisplacement : Unextruded 0 faces due to non-consecutive vertices being extruded.
truncateDisplacement : Unextruded 0 faces due to stringed edges with inconsistent extrusion.

Setting up information for layer truncation ...

Checking mesh with layer ...
Checking faces in error :
    non-orthogonality > 65  degrees                        : 1
    faces with face pyramid volume < 1e-13                 : 0
    faces with concavity > 80  degrees                     : 0
    faces with skewness > 4   (internal) or 4   (boundary) : 0
    faces with interpolation weights (0..1)  < 0.05        : 5
    faces with volume ratio of neighbour cells < 0.01      : 0
    faces on cells with determinant < 0.001                : 0
Detected 6 illegal faces (concave, zero area or negative cell pyramid volume)
Extruding 141284 out of 141369 faces (99.939874%). Removed extrusion at 6 faces.
Added 353895 out of 424107 cells (83.444744%).


Layer addition iteration 5
--------------------------

Determining displacement for added points according to pointNormal ...
Detected 0 points with point normal pointing through faces.
Reset displacement at 0 points to average of surrounding points.

displacementMedialAxis : Smoothing using Medial Axis ...
displacementMedialAxis : Reducing layer thickness at 8269 nodes where thickness to medial axis distance is large 
displacementMedialAxis : Removing isolated regions ...
displacementMedialAxis : Number of isolated points extrusion stopped : 5
displacementMedialAxis : Smoothing field ...
    Iteration 0   residual 0.011273883
displacementMedialAxis : Moving mesh ...
displacementMedialAxis : Iteration 0
Moving mesh using displacement scaling : min:1  max:1
Checking faces in error :
    non-orthogonality > 65  degrees                        : 15
    faces with face pyramid volume < 1e-13                 : 0
    faces with concavity > 80  degrees                     : 0
    faces with skewness > 4   (internal) or 4   (boundary) : 0
    faces with interpolation weights (0..1)  < 0.05        : 0
    faces with volume ratio of neighbour cells < 0.01      : 0
    faces on cells with determinant < 0.001                : 0
displacementMedialAxis : Iteration 1
Moving mesh using displacement scaling : min:0.75  max:1
Checking faces in error :
    non-orthogonality > 65  degrees                        : 0
    faces with face pyramid volume < 1e-13                 : 0
    faces with concavity > 80  degrees                     : 0
    faces with skewness > 4   (internal) or 4   (boundary) : 0
    faces with interpolation weights (0..1)  < 0.05        : 0
    faces with volume ratio of neighbour cells < 0.01      : 0
    faces on cells with determinant < 0.001                : 0
displacementMedialAxis : Successfully moved mesh
displacementMedialAxis : Finished moving mesh ...
truncateDisplacement : Unextruded 0 faces due to non-consecutive vertices being extruded.
truncateDisplacement : Unextruded 0 faces due to stringed edges with inconsistent extrusion.

Setting up information for layer truncation ...

Checking mesh with layer ...
Checking faces in error :
    non-orthogonality > 65  degrees                        : 1
    faces with face pyramid volume < 1e-13                 : 0
    faces with concavity > 80  degrees                     : 0
    faces with skewness > 4   (internal) or 4   (boundary) : 0
    faces with interpolation weights (0..1)  < 0.05        : 1
    faces with volume ratio of neighbour cells < 0.01      : 0
    faces on cells with determinant < 0.001                : 0
Detected 2 illegal faces (concave, zero area or negative cell pyramid volume)
Extruding 141280 out of 141369 faces (99.937044%). Removed extrusion at 2 faces.
Added 353853 out of 424107 cells (83.434841%).


Layer addition iteration 6
--------------------------

Determining displacement for added points according to pointNormal ...
Detected 0 points with point normal pointing through faces.
Reset displacement at 0 points to average of surrounding points.

displacementMedialAxis : Smoothing using Medial Axis ...
displacementMedialAxis : Reducing layer thickness at 8269 nodes where thickness to medial axis distance is large 
displacementMedialAxis : Removing isolated regions ...
displacementMedialAxis : Number of isolated points extrusion stopped : 5
displacementMedialAxis : Smoothing field ...
    Iteration 0   residual 0.011276674
displacementMedialAxis : Moving mesh ...
displacementMedialAxis : Iteration 0
Moving mesh using displacement scaling : min:1  max:1
Checking faces in error :
    non-orthogonality > 65  degrees                        : 15
    faces with face pyramid volume < 1e-13                 : 0
    faces with concavity > 80  degrees                     : 0
    faces with skewness > 4   (internal) or 4   (boundary) : 0
    faces with interpolation weights (0..1)  < 0.05        : 0
    faces with volume ratio of neighbour cells < 0.01      : 0
    faces on cells with determinant < 0.001                : 0
displacementMedialAxis : Iteration 1
Moving mesh using displacement scaling : min:0.75  max:1
Checking faces in error :
    non-orthogonality > 65  degrees                        : 0
    faces with face pyramid volume < 1e-13                 : 0
    faces with concavity > 80  degrees                     : 0
    faces with skewness > 4   (internal) or 4   (boundary) : 0
    faces with interpolation weights (0..1)  < 0.05        : 0
    faces with volume ratio of neighbour cells < 0.01      : 0
    faces on cells with determinant < 0.001                : 0
displacementMedialAxis : Successfully moved mesh
displacementMedialAxis : Finished moving mesh ...
truncateDisplacement : Unextruded 0 faces due to non-consecutive vertices being extruded.
truncateDisplacement : Unextruded 0 faces due to stringed edges with inconsistent extrusion.

Setting up information for layer truncation ...

Checking mesh with layer ...
Checking faces in error :
    non-orthogonality > 65  degrees                        : 1
    faces with face pyramid volume < 1e-13                 : 0
    faces with concavity > 80  degrees                     : 0
    faces with skewness > 4   (internal) or 4   (boundary) : 0
    faces with interpolation weights (0..1)  < 0.05        : 1
    faces with volume ratio of neighbour cells < 0.01      : 0
    faces on cells with determinant < 0.001                : 0
Detected 2 illegal faces (concave, zero area or negative cell pyramid volume)
Extruding 141276 out of 141369 faces (99.934215%). Removed extrusion at 2 faces.
Added 353823 out of 424107 cells (83.427767%).


Layer addition iteration 7
--------------------------

Determining displacement for added points according to pointNormal ...
Detected 0 points with point normal pointing through faces.
Reset displacement at 0 points to average of surrounding points.

displacementMedialAxis : Smoothing using Medial Axis ...
displacementMedialAxis : Reducing layer thickness at 8269 nodes where thickness to medial axis distance is large 
displacementMedialAxis : Removing isolated regions ...
displacementMedialAxis : Number of isolated points extrusion stopped : 7
displacementMedialAxis : Smoothing field ...
    Iteration 0   residual 0.011281289
displacementMedialAxis : Moving mesh ...
displacementMedialAxis : Iteration 0
Moving mesh using displacement scaling : min:1  max:1
Checking faces in error :
    non-orthogonality > 65  degrees                        : 15
    faces with face pyramid volume < 1e-13                 : 0
    faces with concavity > 80  degrees                     : 0
    faces with skewness > 4   (internal) or 4   (boundary) : 0
    faces with interpolation weights (0..1)  < 0.05        : 0
    faces with volume ratio of neighbour cells < 0.01      : 0
    faces on cells with determinant < 0.001                : 0
displacementMedialAxis : Iteration 1
Moving mesh using displacement scaling : min:0.75  max:1
Checking faces in error :
    non-orthogonality > 65  degrees                        : 0
    faces with face pyramid volume < 1e-13                 : 0
    faces with concavity > 80  degrees                     : 0
    faces with skewness > 4   (internal) or 4   (boundary) : 0
    faces with interpolation weights (0..1)  < 0.05        : 0
    faces with volume ratio of neighbour cells < 0.01      : 0
    faces on cells with determinant < 0.001                : 0
displacementMedialAxis : Successfully moved mesh
displacementMedialAxis : Finished moving mesh ...
truncateDisplacement : Unextruded 0 faces due to non-consecutive vertices being extruded.
truncateDisplacement : Unextruded 0 faces due to stringed edges with inconsistent extrusion.

Setting up information for layer truncation ...

Checking mesh with layer ...
Checking faces in error :
    non-orthogonality > 65  degrees                        : 1
    faces with face pyramid volume < 1e-13                 : 0
    faces with concavity > 80  degrees                     : 0
    faces with skewness > 4   (internal) or 4   (boundary) : 0
    faces with interpolation weights (0..1)  < 0.05        : 1
    faces with volume ratio of neighbour cells < 0.01      : 0
    faces on cells with determinant < 0.001                : 0
Detected 2 illegal faces (concave, zero area or negative cell pyramid volume)
Extruding 141272 out of 141369 faces (99.931385%). Removed extrusion at 2 faces.
Added 353800 out of 424107 cells (83.422344%).


Layer addition iteration 8
--------------------------

Determining displacement for added points according to pointNormal ...
Detected 0 points with point normal pointing through faces.
Reset displacement at 0 points to average of surrounding points.

displacementMedialAxis : Smoothing using Medial Axis ...
displacementMedialAxis : Reducing layer thickness at 8269 nodes where thickness to medial axis distance is large 
displacementMedialAxis : Removing isolated regions ...
displacementMedialAxis : Number of isolated points extrusion stopped : 1
displacementMedialAxis : Smoothing field ...
    Iteration 0   residual 0.011280274
displacementMedialAxis : Moving mesh ...
displacementMedialAxis : Iteration 0
Moving mesh using displacement scaling : min:1  max:1
Checking faces in error :
    non-orthogonality > 65  degrees                        : 15
    faces with face pyramid volume < 1e-13                 : 0
    faces with concavity > 80  degrees                     : 0
    faces with skewness > 4   (internal) or 4   (boundary) : 0
    faces with interpolation weights (0..1)  < 0.05        : 0
    faces with volume ratio of neighbour cells < 0.01      : 0
    faces on cells with determinant < 0.001                : 0
displacementMedialAxis : Iteration 1
Moving mesh using displacement scaling : min:0.75  max:1
Checking faces in error :
    non-orthogonality > 65  degrees                        : 0
    faces with face pyramid volume < 1e-13                 : 0
    faces with concavity > 80  degrees                     : 0
    faces with skewness > 4   (internal) or 4   (boundary) : 0
    faces with interpolation weights (0..1)  < 0.05        : 0
    faces with volume ratio of neighbour cells < 0.01      : 0
    faces on cells with determinant < 0.001                : 0
displacementMedialAxis : Successfully moved mesh
displacementMedialAxis : Finished moving mesh ...
truncateDisplacement : Unextruded 0 faces due to non-consecutive vertices being extruded.
truncateDisplacement : Unextruded 0 faces due to stringed edges with inconsistent extrusion.

Setting up information for layer truncation ...

Checking mesh with layer ...
Checking faces in error :
    non-orthogonality > 65  degrees                        : 1
    faces with face pyramid volume < 1e-13                 : 0
    faces with concavity > 80  degrees                     : 0
    faces with skewness > 4   (internal) or 4   (boundary) : 0
    faces with interpolation weights (0..1)  < 0.05        : 1
    faces with volume ratio of neighbour cells < 0.01      : 0
    faces on cells with determinant < 0.001                : 0
Detected 2 illegal faces (concave, zero area or negative cell pyramid volume)
Extruding 141268 out of 141369 faces (99.928556%). Removed extrusion at 2 faces.
Added 353793 out of 424107 cells (83.420693%).


Layer addition iteration 9
--------------------------

Determining displacement for added points according to pointNormal ...
Detected 0 points with point normal pointing through faces.
Reset displacement at 0 points to average of surrounding points.

displacementMedialAxis : Smoothing using Medial Axis ...
displacementMedialAxis : Reducing layer thickness at 8269 nodes where thickness to medial axis distance is large 
displacementMedialAxis : Removing isolated regions ...
displacementMedialAxis : Number of isolated points extrusion stopped : 1
displacementMedialAxis : Smoothing field ...
    Iteration 0   residual 0.011279258
displacementMedialAxis : Moving mesh ...
displacementMedialAxis : Iteration 0
Moving mesh using displacement scaling : min:1  max:1
Checking faces in error :
    non-orthogonality > 65  degrees                        : 15
    faces with face pyramid volume < 1e-13                 : 0
    faces with concavity > 80  degrees                     : 0
    faces with skewness > 4   (internal) or 4   (boundary) : 0
    faces with interpolation weights (0..1)  < 0.05        : 0
    faces with volume ratio of neighbour cells < 0.01      : 0
    faces on cells with determinant < 0.001                : 0
displacementMedialAxis : Iteration 1
Moving mesh using displacement scaling : min:0.75  max:1
Checking faces in error :
    non-orthogonality > 65  degrees                        : 0
    faces with face pyramid volume < 1e-13                 : 0
    faces with concavity > 80  degrees                     : 0
    faces with skewness > 4   (internal) or 4   (boundary) : 0
    faces with interpolation weights (0..1)  < 0.05        : 0
    faces with volume ratio of neighbour cells < 0.01      : 0
    faces on cells with determinant < 0.001                : 0
displacementMedialAxis : Successfully moved mesh
displacementMedialAxis : Finished moving mesh ...
truncateDisplacement : Unextruded 0 faces due to non-consecutive vertices being extruded.
truncateDisplacement : Unextruded 0 faces due to stringed edges with inconsistent extrusion.

Setting up information for layer truncation ...

Checking mesh with layer ...
Checking faces in error :
    non-orthogonality > 65  degrees                        : 1
    faces with face pyramid volume < 1e-13                 : 0
    faces with concavity > 80  degrees                     : 0
    faces with skewness > 4   (internal) or 4   (boundary) : 0
    faces with interpolation weights (0..1)  < 0.05        : 1
    faces with volume ratio of neighbour cells < 0.01      : 0
    faces on cells with determinant < 0.001                : 0
Detected 2 illegal faces (concave, zero area or negative cell pyramid volume)
Extruding 141264 out of 141369 faces (99.925726%). Removed extrusion at 2 faces.
Added 353786 out of 424107 cells (83.419043%).

Edge intersection testing:
    Number of edges             : 3043519
    Number of edges to retest   : 0
    Number of intersected edges : 495155
Writing 353786 added cells to cellSet addedCells
Writing 212520 faces inside added layer to faceSet layerFaces

Writing fields with layer information:
    nSurfaceLayers    : actual number of layers
    thickness         : overall layer thickness
    thicknessFraction : overall layer thickness (fraction of desired thickness)


patch     faces    layers   overall thickness
                            [m]       [%]
-----     -----    ------   ---       ---
buildings 141369   2.5      0.406     77.8    

Layer mesh : cells:938611  faces:3043519  points:1174569
Cells per refinement level:
    0	7218
    1	4105
    2	57136
    3	98336
    4	425718
    5	346098
Writing mesh to time constant
Wrote mesh in = 78.44 s.
Layers added in = 78.44 s.
Checking final mesh ...
Checking faces in error :
    non-orthogonality > 65  degrees                        : 1
    faces with face pyramid volume < 1e-13                 : 0
    faces with concavity > 80  degrees                     : 0
    faces with skewness > 4   (internal) or 4   (boundary) : 0
    faces with interpolation weights (0..1)  < 0.05        : 1
    faces with volume ratio of neighbour cells < 0.01      : 0
    faces on cells with determinant < 0.001                : 0
Finished meshing with 2 illegal faces (concave, zero area or negative cell pyramid volume)
Finished meshing in = 278.45 s.
End

