/*---------------------------------------------------------------------------*\
  =========                 |
  \\      /  F ield         | OpenFOAM: The Open Source CFD Toolbox
   \\    /   O peration     | Website:  https://openfoam.org
    \\  /    A nd           | Version:  8
     \\/     M anipulation  |
\*---------------------------------------------------------------------------*/
Build  : 8-1c9b5879390b
Exec   : urbanMicroclimateFoam
Date   : Jul 15 2025
Time   : 09:04:14
Host   : "Sina"
PID    : 929
I/O    : uncollated
Case   : /mnt/c/users/engsi/onedrive/kk/windAroundBuildings_CFDHAM_veg
nProcs : 1
sigFpe : Enabling floating point exception trapping (FOAM_SIGFPE).
fileModificationChecking : Monitoring run-time modified files using timeStampMaster (fileModificationSkew 10)
allowSystemOperations : Allowing user-supplied system call operations

// * * * * * * * * * * * * * * * * * * * * * * * * * * * * * * * * * * * * * //
Create time

Create fluid mesh for region air for time = 0

Create solid mesh for region buildings for time = 0

Create solid mesh for region ground for time = 0

Create vegetation mesh for region vegetation for time = 0

*** Reading fluid mesh thermophysical properties for region air

    Adding to thermoFluid

Selecting thermodynamics package 
{
    type            heRhoThermo;
    mixture         pureMixture;
    transport       const;
    thermo          hConst;
    equationOfState Boussinesq;
    specie          specie;
    energy          sensibleInternalEnergy;
}

    Adding to rhoFluid

Radiation model not active: radiationProperties not found
Selecting radiationModel none
solarLoad model not active: solarLoadProperties not found
Selecting solarLoadModel none
Selecting vegetationModel simplifiedVegetation
 Defined simplifiedVegetation model
Grass model not active: grassProperties not found
Selecting grassModel none
    Adding to UFluid

    Adding to wFluid

    Adding to gcrFluid

    Adding to phiFluid

    Adding to gFluid

    Adding to turbulence

Selecting turbulence model type RAS
Selecting RAS turbulence model realizableKE
RAS
{
    RASModel        realizableKE;
    turbulence      on;
    printCoeffs     on;
    A0              4;
    C2              1.9;
    sigmak          1;
    sigmaEps        1.2;
}

    Adding to thermophysical transport

Selecting thermophysical transport type RAS
Selecting default RAS thermophysical transport model eddyDiffusivity
    Adding to ghFluid

    Adding to ghfFluid

pressureControl
    pMax 120000
    pMin 80000

    Adding MRF

No MRF models present

    Adding fvOptions

Creating finite volume options from "system/fvOptions"

Selecting finite volume options model type limitTemperature
    Source: limitT
    - selecting all cells
    - selected 938611 cell(s) with volume 29987408
    Adding solidTransportProperties

    Adding to rho_mSolid

    Adding to cap_mSolid

    Adding to lambda_mSolid

    Adding to TsSolid

    Adding to wsSolid

    Adding to pcSolid

    Adding to KrelSolid

    Adding to K_vSolid

    Adding to K_ptSolid

    Adding to CrelSolid

    Adding to gSolid

    Adding solidTransportProperties

    Adding to rho_mSolid

    Adding to cap_mSolid

    Adding to lambda_mSolid

    Adding to TsSolid

    Adding to wsSolid

    Adding to pcSolid

    Adding to KrelSolid

    Adding to K_vSolid

    Adding to K_ptSolid

    Adding to CrelSolid

    Adding to gSolid

*** Reading fluid mesh thermophysical properties for region vegetation

    Adding to TVeg

Selecting radiationModel viewFactorSky
Selecting absorptionEmissionModel none
Selecting scatterModel none
Selecting solarLoadModel directAndDiffuse
Selecting solarLoadAbsorptionEmissionModel none
Selecting solarLoadScatterModel none
Selected patches:8(0 1 2 3 4 5 6 7)
Number of coarse faces:2425
wallPatchOrNot_: 8(0 0 0 0 1 0 1 1)
nLocalWallCoarseFaces_: 2336
Selected patches:8(0 1 2 3 4 5 6 7)
Number of coarse faces:2425
wallPatchOrNot_: 7(0 0 0 0 1 0 1)
nLocalWallCoarseFaces_: 2336
Total number of clusters : 2425
Total number of fine faces : 163832
Insert elements in the matrix...
Smoothing the matrix...

Time = 3600

Solving for fluid region air
blendingLayer dampingThickness: 60
blendingLayer alphaCoeffU: 0.3
blendingLayer alphaCoeffT: 0.1
Blending layer initialized

SIMPLE: Convergence criteria found
        p_rgh: tolerance 0.001
        U: tolerance 0.0001
        h: tolerance 0.0001
        w: tolerance 0.0001
        "(k|epsilon|omega)": tolerance 0.0001
        Tl: tolerance 0.0001

Internal iteration number: 1
DILUPBiCGStab:  Solving for Ux, Initial residual = 1, Final residual = 0.0042254491, No Iterations 2
DILUPBiCGStab:  Solving for Uy, Initial residual = 1, Final residual = 0.001756996, No Iterations 2
DILUPBiCGStab:  Solving for Uz, Initial residual = 1, Final residual = 0.0039213097, No Iterations 2
DILUPBiCGStab:  Solving for e, Initial residual = 1, Final residual = 0.0069407881, No Iterations 2
Min/max T:273.15 350.15
GAMG:  Solving for p_rgh, Initial residual = 0.26661029, Final residual = 0.0015250442, No Iterations 5
time step continuity errors : sum local = 42.892045, global = -20.126061, cumulative = -20.126061
DILUPBiCGStab:  Solving for w, Initial residual = 0.99999998, Final residual = 0.0039948338, No Iterations 3
bounding magU, min: 0 max: 2363.5371 average: 5.3438094
    max leaf temp tl=max(new_Tl) [0 0 0 1 0 0 0] 293.15k, iteration i=0
    max leaf temp tl=295.29873 K, iteration i=1
    max leaf temp tl=295.29873 K, iteration i=2
    max leaf temp tl=295.29873 K, iteration i=3
    max leaf temp tl=295.29873 K, iteration i=4
    max leaf temp tl=295.29873 K, iteration i=5
    max leaf temp tl=295.29873 K, iteration i=6
    max leaf temp tl=295.29873 K, iteration i=7
    max leaf temp tl=295.29873 K, iteration i=8
    max leaf temp tl=295.29873 K, iteration i=9
    max leaf temp tl=295.29873 K, iteration i=10
    max leaf temp tl=295.29873 K, iteration i=11
    max leaf temp tl=295.29873 K, iteration i=12
    max leaf temp tl=295.29873 K, iteration i=13
    max leaf temp tl=295.29873 K, iteration i=14
Vegetation model:  Solving for Tl, Final residual = 0.020818811, Final relative residual = 7.0500848e-05, No Iterations 14
temperature parameters: max Tl = 295.28415, min T = 273.15, max T = 350.15
resistances: max rs = 2243.8385, max ra = 25.716585
DILUPBiCGStab:  Solving for epsilon, Initial residual = 0.48633093, Final residual = 0.00015757139, No Iterations 1
DILUPBiCGStab:  Solving for k, Initial residual = 1, Final residual = 0.00079712071, No Iterations 1

Internal iteration number: 2
DILUPBiCGStab:  Solving for Ux, Initial residual = 0.48726585, Final residual = 0.0017827073, No Iterations 1
DILUPBiCGStab:  Solving for Uy, Initial residual = 0.18483713, Final residual = 0.0013424433, No Iterations 1
DILUPBiCGStab:  Solving for Uz, Initial residual = 0.32099239, Final residual = 0.0022975587, No Iterations 1
DILUPBiCGStab:  Solving for e, Initial residual = 0.91378887, Final residual = 0.0031674272, No Iterations 2
Min/max T:273.15 350.15
GAMG:  Solving for p_rgh, Initial residual = 0.65283673, Final residual = 0.0057775517, No Iterations 4
time step continuity errors : sum local = 0.010355247, global = -0.0029675673, cumulative = -20.129029
pressureControl: p max 1036052.3
pressureControl: p min -956359.12
DILUPBiCGStab:  Solving for w, Initial residual = 0.36150731, Final residual = 0.002138638, No Iterations 3
bounding magU, min: 0 max: 2912.4489 average: 7.1817377
    max leaf temp tl=max(new_Tl) [0 0 0 1 0 0 0] 295.28415k, iteration i=0
    max leaf temp tl=296.68451 K, iteration i=1
    max leaf temp tl=296.68451 K, iteration i=2
    max leaf temp tl=296.68451 K, iteration i=3
    max leaf temp tl=296.68451 K, iteration i=4
    max leaf temp tl=296.68451 K, iteration i=5
    max leaf temp tl=296.68451 K, iteration i=6
    max leaf temp tl=296.68451 K, iteration i=7
    max leaf temp tl=296.68451 K, iteration i=8
    max leaf temp tl=296.68451 K, iteration i=9
    max leaf temp tl=296.68451 K, iteration i=10
    max leaf temp tl=296.68451 K, iteration i=11
    max leaf temp tl=296.68451 K, iteration i=12
    max leaf temp tl=296.68451 K, iteration i=13
    max leaf temp tl=296.68451 K, iteration i=14
Vegetation model:  Solving for Tl, Final residual = 0.022275079, Final relative residual = 7.5080021e-05, No Iterations 14
temperature parameters: max Tl = 296.67132, min T = 273.15, max T = 350.15
resistances: max rs = 2312.7661, max ra = 177.7031
DILUPBiCGStab:  Solving for epsilon, Initial residual = 0.0086396048, Final residual = 7.5934866e-06, No Iterations 1
DILUPBiCGStab:  Solving for k, Initial residual = 0.19899473, Final residual = 0.00038393537, No Iterations 1

Internal iteration number: 3
DILUPBiCGStab:  Solving for Ux, Initial residual = 0.4482488, Final residual = 0.00088950455, No Iterations 2
DILUPBiCGStab:  Solving for Uy, Initial residual = 0.30163344, Final residual = 0.00071234428, No Iterations 2
DILUPBiCGStab:  Solving for Uz, Initial residual = 0.39200107, Final residual = 0.0017572106, No Iterations 2
DILUPBiCGStab:  Solving for e, Initial residual = 0.79466564, Final residual = 0.0037337342, No Iterations 2
Min/max T:273.15 350.15
GAMG:  Solving for p_rgh, Initial residual = 0.44849892, Final residual = 0.0027939997, No Iterations 5
time step continuity errors : sum local = 0.0071637652, global = 0.0027196926, cumulative = -20.126309
pressureControl: p max 1380124.9
pressureControl: p min -293301.4
DILUPBiCGStab:  Solving for w, Initial residual = 0.2609069, Final residual = 0.0017095687, No Iterations 3
bounding magU, min: 0 max: 2168.0292 average: 6.5869923
    max leaf temp tl=max(new_Tl) [0 0 0 1 0 0 0] 296.67132k, iteration i=0
    max leaf temp tl=296.45169 K, iteration i=1
    max leaf temp tl=296.45169 K, iteration i=2
    max leaf temp tl=296.45169 K, iteration i=3
    max leaf temp tl=296.45169 K, iteration i=4
    max leaf temp tl=296.45169 K, iteration i=5
    max leaf temp tl=296.45169 K, iteration i=6
    max leaf temp tl=296.45169 K, iteration i=7
    max leaf temp tl=296.45169 K, iteration i=8
    max leaf temp tl=296.45169 K, iteration i=9
    max leaf temp tl=296.45169 K, iteration i=10
    max leaf temp tl=296.45169 K, iteration i=11
    max leaf temp tl=296.45169 K, iteration i=12
Vegetation model:  Solving for Tl, Final residual = 0.028153481, Final relative residual = 9.4968191e-05, No Iterations 12
temperature parameters: max Tl = 296.44956, min T = 273.15, max T = 350.15
resistances: max rs = 2301.3959, max ra = 72.901247
DILUPBiCGStab:  Solving for epsilon, Initial residual = 0.013123645, Final residual = 2.4213862e-05, No Iterations 1
DILUPBiCGStab:  Solving for k, Initial residual = 0.27663563, Final residual = 0.00079359489, No Iterations 1

Internal iteration number: 4
DILUPBiCGStab:  Solving for Ux, Initial residual = 0.33092985, Final residual = 0.001509943, No Iterations 2
DILUPBiCGStab:  Solving for Uy, Initial residual = 0.29250068, Final residual = 0.0027663354, No Iterations 2
DILUPBiCGStab:  Solving for Uz, Initial residual = 0.37825972, Final residual = 0.0021087177, No Iterations 2
DILUPBiCGStab:  Solving for e, Initial residual = 0.73291678, Final residual = 0.0058753268, No Iterations 3
Min/max T:273.15 350.15
GAMG:  Solving for p_rgh, Initial residual = 0.59543687, Final residual = 0.0044613999, No Iterations 4
time step continuity errors : sum local = 0.0082959624, global = 0.0030128261, cumulative = -20.123297
pressureControl: p max 310857.5
pressureControl: p min -303655.61
DILUPBiCGStab:  Solving for w, Initial residual = 0.21187615, Final residual = 0.0013372997, No Iterations 4
bounding magU, min: 0 max: 1978.7537 average: 7.3073292
    max leaf temp tl=max(new_Tl) [0 0 0 1 0 0 0] 296.44956k, iteration i=0
    max leaf temp tl=295.86664 K, iteration i=1
    max leaf temp tl=295.86664 K, iteration i=2
    max leaf temp tl=295.86664 K, iteration i=3
    max leaf temp tl=295.86664 K, iteration i=4
    max leaf temp tl=295.86664 K, iteration i=5
    max leaf temp tl=295.86664 K, iteration i=6
    max leaf temp tl=295.86664 K, iteration i=7
    max leaf temp tl=295.86664 K, iteration i=8
    max leaf temp tl=295.86664 K, iteration i=9
    max leaf temp tl=295.86664 K, iteration i=10
    max leaf temp tl=295.86664 K, iteration i=11
Vegetation model:  Solving for Tl, Final residual = 0.027969216, Final relative residual = 9.4533188e-05, No Iterations 11
temperature parameters: max Tl = 295.8697, min T = 273.15, max T = 350.15
resistances: max rs = 2272.4605, max ra = 68.926794
DILUPBiCGStab:  Solving for epsilon, Initial residual = 0.024106298, Final residual = 3.0309332e-05, No Iterations 1
DILUPBiCGStab:  Solving for k, Initial residual = 0.2352112, Final residual = 0.00046778532, No Iterations 1

Internal iteration number: 5
DILUPBiCGStab:  Solving for Ux, Initial residual = 0.19739982, Final residual = 0.0011773587, No Iterations 2
DILUPBiCGStab:  Solving for Uy, Initial residual = 0.20866547, Final residual = 0.0011643306, No Iterations 2
DILUPBiCGStab:  Solving for Uz, Initial residual = 0.30715723, Final residual = 0.0013039542, No Iterations 2
DILUPBiCGStab:  Solving for e, Initial residual = 0.56292948, Final residual = 0.0034138808, No Iterations 3
Min/max T:273.15 350.15
GAMG:  Solving for p_rgh, Initial residual = 0.37796998, Final residual = 0.0029856202, No Iterations 4
time step continuity errors : sum local = 0.0067714737, global = -0.0047505945, cumulative = -20.128047
pressureControl: p max 367110.77
pressureControl: p min -69646.74
DILUPBiCGStab:  Solving for w, Initial residual = 0.17190388, Final residual = 0.001664321, No Iterations 3
bounding magU, min: 0 max: 1325.6906 average: 6.7047739
    max leaf temp tl=max(new_Tl) [0 0 0 1 0 0 0] 295.8697k, iteration i=0
    max leaf temp tl=295.53159 K, iteration i=1
    max leaf temp tl=295.53159 K, iteration i=2
    max leaf temp tl=295.53159 K, iteration i=3
    max leaf temp tl=295.53159 K, iteration i=4
    max leaf temp tl=295.53159 K, iteration i=5
    max leaf temp tl=295.53159 K, iteration i=6
    max leaf temp tl=295.53159 K, iteration i=7
    max leaf temp tl=295.53159 K, iteration i=8
    max leaf temp tl=295.53159 K, iteration i=9
    max leaf temp tl=295.53159 K, iteration i=10
Vegetation model:  Solving for Tl, Final residual = 0.024777138, Final relative residual = 8.3839221e-05, No Iterations 10
temperature parameters: max Tl = 295.53987, min T = 273.15, max T = 350.15
resistances: max rs = 2255.6414, max ra = 112.15017
DILUPBiCGStab:  Solving for epsilon, Initial residual = 0.050385578, Final residual = 6.0821865e-05, No Iterations 1
DILUPBiCGStab:  Solving for k, Initial residual = 0.19057316, Final residual = 0.00038520786, No Iterations 1

Internal iteration number: 6
DILUPBiCGStab:  Solving for Ux, Initial residual = 0.21586301, Final residual = 0.0014249676, No Iterations 2
DILUPBiCGStab:  Solving for Uy, Initial residual = 0.20933973, Final residual = 0.00087717091, No Iterations 2
DILUPBiCGStab:  Solving for Uz, Initial residual = 0.26744603, Final residual = 0.0022946185, No Iterations 2
DILUPBiCGStab:  Solving for e, Initial residual = 0.51204686, Final residual = 0.004902999, No Iterations 3
Min/max T:273.15 350.15
GAMG:  Solving for p_rgh, Initial residual = 0.3535087, Final residual = 0.001879634, No Iterations 5
time step continuity errors : sum local = 0.0034757965, global = -0.0011843358, cumulative = -20.129231
pressureControl: p max 333276.3
pressureControl: p min 44143.392
DILUPBiCGStab:  Solving for w, Initial residual = 0.1454172, Final residual = 0.0014238288, No Iterations 3
bounding magU, min: 0 max: 1292.929 average: 6.4826464
    max leaf temp tl=max(new_Tl) [0 0 0 1 0 0 0] 295.53987k, iteration i=0
    max leaf temp tl=295.18217 K, iteration i=1
    max leaf temp tl=295.18217 K, iteration i=2
    max leaf temp tl=295.18217 K, iteration i=3
    max leaf temp tl=295.18217 K, iteration i=4
    max leaf temp tl=295.18217 K, iteration i=5
    max leaf temp tl=295.18217 K, iteration i=6
    max leaf temp tl=295.18217 K, iteration i=7
    max leaf temp tl=295.18217 K, iteration i=8
    max leaf temp tl=295.18217 K, iteration i=9
Vegetation model:  Solving for Tl, Final residual = 0.024251739, Final relative residual = 8.2158548e-05, No Iterations 9
temperature parameters: max Tl = 295.19661, min T = 273.15, max T = 350.15
resistances: max rs = 2237.8944, max ra = 256.09076
DILUPBiCGStab:  Solving for epsilon, Initial residual = 0.097372542, Final residual = 0.00012226855, No Iterations 1
DILUPBiCGStab:  Solving for k, Initial residual = 0.19490957, Final residual = 0.00034785005, No Iterations 1

Internal iteration number: 7
DILUPBiCGStab:  Solving for Ux, Initial residual = 0.20278572, Final residual = 0.00077501454, No Iterations 2
DILUPBiCGStab:  Solving for Uy, Initial residual = 0.18146057, Final residual = 0.00075504239, No Iterations 2
DILUPBiCGStab:  Solving for Uz, Initial residual = 0.2031233, Final residual = 0.00058132045, No Iterations 2
DILUPBiCGStab:  Solving for e, Initial residual = 0.41218144, Final residual = 0.0029692746, No Iterations 3
Min/max T:273.15 350.15
GAMG:  Solving for p_rgh, Initial residual = 0.51629553, Final residual = 0.0023662442, No Iterations 4
time step continuity errors : sum local = 0.0023890869, global = 0.00036097488, cumulative = -20.12887
pressureControl: p max 177121.05
pressureControl: p min 28871.407
DILUPBiCGStab:  Solving for w, Initial residual = 0.12524756, Final residual = 0.00056852275, No Iterations 3
bounding magU, min: 0 max: 1378.2509 average: 6.4745954
    max leaf temp tl=max(new_Tl) [0 0 0 1 0 0 0] 295.19661k, iteration i=0
    max leaf temp tl=295.06856 K, iteration i=1
    max leaf temp tl=295.06856 K, iteration i=2
    max leaf temp tl=295.06856 K, iteration i=3
    max leaf temp tl=295.06856 K, iteration i=4
    max leaf temp tl=295.06856 K, iteration i=5
    max leaf temp tl=295.06856 K, iteration i=6
    max leaf temp tl=295.06856 K, iteration i=7
    max leaf temp tl=295.06856 K, iteration i=8
    max leaf temp tl=295.06856 K, iteration i=9
    max leaf temp tl=295.06856 K, iteration i=10
Vegetation model:  Solving for Tl, Final residual = 0.025387485, Final relative residual = 8.6039275e-05, No Iterations 10
temperature parameters: max Tl = 295.0655, min T = 273.15, max T = 350.15
resistances: max rs = 2232.0804, max ra = 113.03762
DILUPBiCGStab:  Solving for epsilon, Initial residual = 0.17354185, Final residual = 0.00022512023, No Iterations 1
DILUPBiCGStab:  Solving for k, Initial residual = 0.23853291, Final residual = 0.00035883562, No Iterations 1

Internal iteration number: 8
DILUPBiCGStab:  Solving for Ux, Initial residual = 0.17666131, Final residual = 0.0007235911, No Iterations 2
DILUPBiCGStab:  Solving for Uy, Initial residual = 0.16348853, Final residual = 0.0012313459, No Iterations 2
DILUPBiCGStab:  Solving for Uz, Initial residual = 0.17935769, Final residual = 3.5953066e-05, No Iterations 3
DILUPBiCGStab:  Solving for e, Initial residual = 0.34155615, Final residual = 0.0025447954, No Iterations 4
Min/max T:273.15 350.15
GAMG:  Solving for p_rgh, Initial residual = 0.45308034, Final residual = 0.003344166, No Iterations 4
time step continuity errors : sum local = 0.0030266524, global = 0.0012040897, cumulative = -20.127666
pressureControl: p max 156448.52
pressureControl: p min 35020.355
DILUPBiCGStab:  Solving for w, Initial residual = 0.11960585, Final residual = 0.00059146163, No Iterations 3
bounding magU, min: 0 max: 1224.5147 average: 6.9282859
    max leaf temp tl=max(new_Tl) [0 0 0 1 0 0 0] 295.0655k, iteration i=0
    max leaf temp tl=295.50519 K, iteration i=1
    max leaf temp tl=295.50519 K, iteration i=2
    max leaf temp tl=295.50519 K, iteration i=3
    max leaf temp tl=295.50519 K, iteration i=4
    max leaf temp tl=295.50519 K, iteration i=5
    max leaf temp tl=295.50519 K, iteration i=6
    max leaf temp tl=295.50519 K, iteration i=7
    max leaf temp tl=295.50519 K, iteration i=8
    max leaf temp tl=295.50519 K, iteration i=9
    max leaf temp tl=295.50519 K, iteration i=10
    max leaf temp tl=295.50519 K, iteration i=11
Vegetation model:  Solving for Tl, Final residual = 0.02474167, Final relative residual = 8.3726683e-05, No Iterations 11
temperature parameters: max Tl = 295.49634, min T = 273.15, max T = 350.15
resistances: max rs = 2254.3157, max ra = 155.66706
DILUPBiCGStab:  Solving for epsilon, Initial residual = 0.28847688, Final residual = 0.00044944283, No Iterations 1
DILUPBiCGStab:  Solving for k, Initial residual = 0.25215533, Final residual = 0.00041056545, No Iterations 1

Internal iteration number: 9
DILUPBiCGStab:  Solving for Ux, Initial residual = 0.16905129, Final residual = 0.0010472921, No Iterations 2
DILUPBiCGStab:  Solving for Uy, Initial residual = 0.15316856, Final residual = 0.00096065325, No Iterations 2
DILUPBiCGStab:  Solving for Uz, Initial residual = 0.16921377, Final residual = 0.0012419121, No Iterations 2
DILUPBiCGStab:  Solving for e, Initial residual = 0.3598945, Final residual = 0.0031139284, No Iterations 4
Min/max T:273.15 350.15
GAMG:  Solving for p_rgh, Initial residual = 0.39164893, Final residual = 0.0021409966, No Iterations 4
time step continuity errors : sum local = 0.0020795697, global = 0.00059029352, cumulative = -20.127076
pressureControl: p max 141814.55
pressureControl: p min 60040.447
DILUPBiCGStab:  Solving for w, Initial residual = 0.11479821, Final residual = 0.00055431414, No Iterations 3
bounding magU, min: 0 max: 969.50266 average: 7.1456176
    max leaf temp tl=max(new_Tl) [0 0 0 1 0 0 0] 295.49634k, iteration i=0
    max leaf temp tl=296.5371 K, iteration i=1
    max leaf temp tl=296.5371 K, iteration i=2
    max leaf temp tl=296.5371 K, iteration i=3
    max leaf temp tl=296.5371 K, iteration i=4
    max leaf temp tl=296.5371 K, iteration i=5
    max leaf temp tl=296.5371 K, iteration i=6
    max leaf temp tl=296.5371 K, iteration i=7
    max leaf temp tl=296.5371 K, iteration i=8
    max leaf temp tl=296.5371 K, iteration i=9
    max leaf temp tl=296.5371 K, iteration i=10
    max leaf temp tl=296.5371 K, iteration i=11
    max leaf temp tl=296.5371 K, iteration i=12
Vegetation model:  Solving for Tl, Final residual = 0.026135042, Final relative residual = 8.8134141e-05, No Iterations 12
temperature parameters: max Tl = 296.52135, min T = 273.15, max T = 350.15
resistances: max rs = 2305.5913, max ra = 141.29869
DILUPBiCGStab:  Solving for epsilon, Initial residual = 0.36079916, Final residual = 0.00023497504, No Iterations 1
DILUPBiCGStab:  Solving for k, Initial residual = 0.22882394, Final residual = 0.00025256851, No Iterations 1

Internal iteration number: 10
DILUPBiCGStab:  Solving for Ux, Initial residual = 0.16701573, Final residual = 0.0011519413, No Iterations 2
DILUPBiCGStab:  Solving for Uy, Initial residual = 0.1459723, Final residual = 0.0010240927, No Iterations 2
DILUPBiCGStab:  Solving for Uz, Initial residual = 0.15445112, Final residual = 0.00081028152, No Iterations 2
DILUPBiCGStab:  Solving for e, Initial residual = 0.38298184, Final residual = 0.0034207187, No Iterations 3
Min/max T:273.15 350.15
GAMG:  Solving for p_rgh, Initial residual = 0.29325763, Final residual = 0.0015185453, No Iterations 4
time step continuity errors : sum local = 0.0019772993, global = -0.0003970286, cumulative = -20.127473
pressureControl: p max 151478.83
pressureControl: p min 70983.919
DILUPBiCGStab:  Solving for w, Initial residual = 0.11590363, Final residual = 0.00061042655, No Iterations 3
bounding magU, min: 0 max: 933.41428 average: 7.2341211
    max leaf temp tl=max(new_Tl) [0 0 0 1 0 0 0] 296.52135k, iteration i=0
    max leaf temp tl=298.99466 K, iteration i=1
    max leaf temp tl=298.99466 K, iteration i=2
    max leaf temp tl=298.99466 K, iteration i=3
    max leaf temp tl=298.99466 K, iteration i=4
    max leaf temp tl=298.99466 K, iteration i=5
    max leaf temp tl=298.99466 K, iteration i=6
    max leaf temp tl=298.99466 K, iteration i=7
    max leaf temp tl=298.99466 K, iteration i=8
    max leaf temp tl=298.99466 K, iteration i=9
    max leaf temp tl=298.99466 K, iteration i=10
    max leaf temp tl=298.99466 K, iteration i=11
    max leaf temp tl=298.99466 K, iteration i=12
    max leaf temp tl=298.99466 K, iteration i=13
    max leaf temp tl=298.99466 K, iteration i=14
Vegetation model:  Solving for Tl, Final residual = 0.025783892, Final relative residual = 8.6235292e-05, No Iterations 14
temperature parameters: max Tl = 298.97731, min T = 273.15, max T = 350.15
resistances: max rs = 2421.8035, max ra = 146.81162
DILUPBiCGStab:  Solving for epsilon, Initial residual = 0.40376612, Final residual = 0.0037666123, No Iterations 1
DILUPBiCGStab:  Solving for k, Initial residual = 0.22456934, Final residual = 0.00018275788, No Iterations 1

Internal iteration number: 11
DILUPBiCGStab:  Solving for Ux, Initial residual = 0.15760148, Final residual = 0.00090434073, No Iterations 2
DILUPBiCGStab:  Solving for Uy, Initial residual = 0.14049321, Final residual = 0.00097537237, No Iterations 2
DILUPBiCGStab:  Solving for Uz, Initial residual = 0.14336429, Final residual = 0.00051104073, No Iterations 2
DILUPBiCGStab:  Solving for e, Initial residual = 0.34175274, Final residual = 0.0018993617, No Iterations 4
Min/max T:273.15 350.15
GAMG:  Solving for p_rgh, Initial residual = 0.27675331, Final residual = 0.0024812045, No Iterations 3
time step continuity errors : sum local = 0.0032476314, global = -0.00088896522, cumulative = -20.128362
pressureControl: p max 136597.8
DILUPBiCGStab:  Solving for w, Initial residual = 0.12032156, Final residual = 0.0011935122, No Iterations 3
bounding magU, min: 0 max: 788.39762 average: 7.6151872
    max leaf temp tl=max(new_Tl) [0 0 0 1 0 0 0] 298.97731k, iteration i=0
    max leaf temp tl=302.81939 K, iteration i=1
    max leaf temp tl=302.81939 K, iteration i=2
    max leaf temp tl=302.81939 K, iteration i=3
    max leaf temp tl=302.81939 K, iteration i=4
    max leaf temp tl=302.81939 K, iteration i=5
    max leaf temp tl=302.81939 K, iteration i=6
    max leaf temp tl=302.81939 K, iteration i=7
    max leaf temp tl=302.81939 K, iteration i=8
    max leaf temp tl=302.81939 K, iteration i=9
    max leaf temp tl=302.81939 K, iteration i=10
    max leaf temp tl=302.81939 K, iteration i=11
    max leaf temp tl=302.81939 K, iteration i=12
    max leaf temp tl=302.81939 K, iteration i=13
    max leaf temp tl=302.81939 K, iteration i=14
    max leaf temp tl=302.81939 K, iteration i=15
Vegetation model:  Solving for Tl, Final residual = 0.027221495, Final relative residual = 8.98935e-05, No Iterations 15
temperature parameters: max Tl = 302.80078, min T = 273.15, max T = 350.15
resistances: max rs = 2590.9056, max ra = 109.52141
DILUPBiCGStab:  Solving for epsilon, Initial residual = 0.39661728, Final residual = 0.0025366982, No Iterations 1
DILUPBiCGStab:  Solving for k, Initial residual = 0.18214393, Final residual = 0.00013505227, No Iterations 1

Internal iteration number: 12
DILUPBiCGStab:  Solving for Ux, Initial residual = 0.1380692, Final residual = 0.00091445637, No Iterations 2
DILUPBiCGStab:  Solving for Uy, Initial residual = 0.13737501, Final residual = 0.0010851118, No Iterations 2
DILUPBiCGStab:  Solving for Uz, Initial residual = 0.11923823, Final residual = 0.00027050387, No Iterations 2
DILUPBiCGStab:  Solving for e, Initial residual = 0.26621908, Final residual = 0.0019891272, No Iterations 4
Min/max T:273.15 350.15
GAMG:  Solving for p_rgh, Initial residual = 0.28853545, Final residual = 0.0023802474, No Iterations 3
time step continuity errors : sum local = 0.0028385395, global = -0.00056843474, cumulative = -20.128931
pressureControl: p max 132175.55
DILUPBiCGStab:  Solving for w, Initial residual = 0.11738215, Final residual = 0.0011215062, No Iterations 3
bounding magU, min: 0 max: 647.76129 average: 8.025378
    max leaf temp tl=max(new_Tl) [0 0 0 1 0 0 0] 302.80078k, iteration i=0
    max leaf temp tl=305.04488 K, iteration i=1
    max leaf temp tl=305.04488 K, iteration i=2
    max leaf temp tl=305.04488 K, iteration i=3
    max leaf temp tl=305.04488 K, iteration i=4
    max leaf temp tl=305.04488 K, iteration i=5
    max leaf temp tl=305.04488 K, iteration i=6
    max leaf temp tl=305.04488 K, iteration i=7
    max leaf temp tl=305.04488 K, iteration i=8
    max leaf temp tl=305.04488 K, iteration i=9
    max leaf temp tl=305.04488 K, iteration i=10
    max leaf temp tl=305.04488 K, iteration i=11
    max leaf temp tl=305.04488 K, iteration i=12
    max leaf temp tl=305.04488 K, iteration i=13
    max leaf temp tl=305.04488 K, iteration i=14
Vegetation model:  Solving for Tl, Final residual = 0.029933971, Final relative residual = 9.8129728e-05, No Iterations 14
temperature parameters: max Tl = 305.02758, min T = 273.15, max T = 350.15
resistances: max rs = 2684.7854, max ra = 142.83315
DILUPBiCGStab:  Solving for epsilon, Initial residual = 0.31040061, Final residual = 0.0016400719, No Iterations 1
DILUPBiCGStab:  Solving for k, Initial residual = 0.14228944, Final residual = 0.00010386579, No Iterations 1

Internal iteration number: 13
DILUPBiCGStab:  Solving for Ux, Initial residual = 0.12251296, Final residual = 0.00023826339, No Iterations 2
DILUPBiCGStab:  Solving for Uy, Initial residual = 0.12053267, Final residual = 0.00027771059, No Iterations 2
DILUPBiCGStab:  Solving for Uz, Initial residual = 0.11062305, Final residual = 0.00081849634, No Iterations 2
DILUPBiCGStab:  Solving for e, Initial residual = 0.23842099, Final residual = 0.001881727, No Iterations 4
Min/max T:273.15 350.15
GAMG:  Solving for p_rgh, Initial residual = 0.31433026, Final residual = 0.0019475067, No Iterations 3
time step continuity errors : sum local = 0.002050972, global = 9.1553764e-05, cumulative = -20.128839
pressureControl: p max 123982.19
DILUPBiCGStab:  Solving for w, Initial residual = 0.11230419, Final residual = 0.00062790498, No Iterations 3
bounding magU, min: 0 max: 606.92559 average: 8.354609
    max leaf temp tl=max(new_Tl) [0 0 0 1 0 0 0] 305.02758k, iteration i=0
    max leaf temp tl=303.67398 K, iteration i=1
    max leaf temp tl=303.67398 K, iteration i=2
    max leaf temp tl=303.67398 K, iteration i=3
    max leaf temp tl=303.67398 K, iteration i=4
    max leaf temp tl=303.67398 K, iteration i=5
    max leaf temp tl=303.67398 K, iteration i=6
    max leaf temp tl=303.67398 K, iteration i=7
    max leaf temp tl=303.67398 K, iteration i=8
    max leaf temp tl=303.67398 K, iteration i=9
    max leaf temp tl=303.67398 K, iteration i=10
    max leaf temp tl=303.67398 K, iteration i=11
    max leaf temp tl=303.67398 K, iteration i=12
    max leaf temp tl=303.67398 K, iteration i=13
    max leaf temp tl=303.67398 K, iteration i=14
    max leaf temp tl=303.67398 K, iteration i=15
Vegetation model:  Solving for Tl, Final residual = 0.027165591, Final relative residual = 8.9456432e-05, No Iterations 15
temperature parameters: max Tl = 303.67661, min T = 273.15, max T = 350.15
resistances: max rs = 2627.2869, max ra = 71.152744
DILUPBiCGStab:  Solving for epsilon, Initial residual = 0.21416949, Final residual = 0.0010008621, No Iterations 1
DILUPBiCGStab:  Solving for k, Initial residual = 0.10355956, Final residual = 8.6716093e-05, No Iterations 1

Internal iteration number: 14
DILUPBiCGStab:  Solving for Ux, Initial residual = 0.11589129, Final residual = 0.00024206252, No Iterations 2
DILUPBiCGStab:  Solving for Uy, Initial residual = 0.10675149, Final residual = 0.00053231044, No Iterations 2
DILUPBiCGStab:  Solving for Uz, Initial residual = 0.10509327, Final residual = 0.00070417586, No Iterations 2
DILUPBiCGStab:  Solving for e, Initial residual = 0.21536631, Final residual = 0.0013139393, No Iterations 4
Min/max T:273.15 350.15
GAMG:  Solving for p_rgh, Initial residual = 0.31434864, Final residual = 0.0020706419, No Iterations 3
time step continuity errors : sum local = 0.0021364078, global = 0.00018697501, cumulative = -20.128652
DILUPBiCGStab:  Solving for w, Initial residual = 0.10106285, Final residual = 0.00077583239, No Iterations 3
bounding magU, min: 0 max: 515.3207 average: 8.7176774
    max leaf temp tl=max(new_Tl) [0 0 0 1 0 0 0] 303.67661k, iteration i=0
    max leaf temp tl=304.49217 K, iteration i=1
    max leaf temp tl=304.49217 K, iteration i=2
    max leaf temp tl=304.49217 K, iteration i=3
    max leaf temp tl=304.49217 K, iteration i=4
    max leaf temp tl=304.49217 K, iteration i=5
    max leaf temp tl=304.49217 K, iteration i=6
    max leaf temp tl=304.49217 K, iteration i=7
    max leaf temp tl=304.49217 K, iteration i=8
    max leaf temp tl=304.49217 K, iteration i=9
    max leaf temp tl=304.49217 K, iteration i=10
    max leaf temp tl=304.49217 K, iteration i=11
    max leaf temp tl=304.49217 K, iteration i=12
    max leaf temp tl=304.49217 K, iteration i=13
    max leaf temp tl=304.49217 K, iteration i=14
    max leaf temp tl=304.49217 K, iteration i=15
    max leaf temp tl=304.49217 K, iteration i=16
Vegetation model:  Solving for Tl, Final residual = 0.028717026, Final relative residual = 9.4311212e-05, No Iterations 16
temperature parameters: max Tl = 304.47211, min T = 273.15, max T = 350.15
resistances: max rs = 2661.8489, max ra = 106.93471
DILUPBiCGStab:  Solving for epsilon, Initial residual = 0.1172876, Final residual = 0.00066669495, No Iterations 1
DILUPBiCGStab:  Solving for k, Initial residual = 0.061926425, Final residual = 7.170655e-05, No Iterations 1

Internal iteration number: 15
DILUPBiCGStab:  Solving for Ux, Initial residual = 0.11170374, Final residual = 0.00023760161, No Iterations 2
DILUPBiCGStab:  Solving for Uy, Initial residual = 0.10240362, Final residual = 0.00055895308, No Iterations 2
DILUPBiCGStab:  Solving for Uz, Initial residual = 0.10241011, Final residual = 0.00049698674, No Iterations 2
DILUPBiCGStab:  Solving for e, Initial residual = 0.18772507, Final residual = 0.0015874563, No Iterations 4
Min/max T:273.15 350.15
GAMG:  Solving for p_rgh, Initial residual = 0.30742725, Final residual = 0.001583834, No Iterations 3
time step continuity errors : sum local = 0.0016519964, global = 0.00012320997, cumulative = -20.128529
DILUPBiCGStab:  Solving for w, Initial residual = 0.090921697, Final residual = 0.00068192839, No Iterations 3
bounding magU, min: 0 max: 344.54271 average: 9.0572122
    max leaf temp tl=max(new_Tl) [0 0 0 1 0 0 0] 304.47211k, iteration i=0
    max leaf temp tl=309.72626 K, iteration i=1
    max leaf temp tl=309.72626 K, iteration i=2
    max leaf temp tl=309.72626 K, iteration i=3
    max leaf temp tl=309.72626 K, iteration i=4
    max leaf temp tl=309.72626 K, iteration i=5
    max leaf temp tl=309.72626 K, iteration i=6
    max leaf temp tl=309.72626 K, iteration i=7
    max leaf temp tl=309.72626 K, iteration i=8
    max leaf temp tl=309.72626 K, iteration i=9
    max leaf temp tl=309.72626 K, iteration i=10
    max leaf temp tl=309.72626 K, iteration i=11
    max leaf temp tl=309.72626 K, iteration i=12
    max leaf temp tl=309.72626 K, iteration i=13
    max leaf temp tl=309.72626 K, iteration i=14
    max leaf temp tl=309.72626 K, iteration i=15
    max leaf temp tl=309.72626 K, iteration i=16
Vegetation model:  Solving for Tl, Final residual = 0.029760033, Final relative residual = 9.6084952e-05, No Iterations 16
temperature parameters: max Tl = 309.70819, min T = 273.15, max T = 350.15
resistances: max rs = 2875.3515, max ra = 38.070442
DILUPBiCGStab:  Solving for epsilon, Initial residual = 0.042515911, Final residual = 1.7776134e-05, No Iterations 1
DILUPBiCGStab:  Solving for k, Initial residual = 0.051463029, Final residual = 5.6612213e-05, No Iterations 1

Internal iteration number: 16
DILUPBiCGStab:  Solving for Ux, Initial residual = 0.10603787, Final residual = 2.9435307e-05, No Iterations 3
DILUPBiCGStab:  Solving for Uy, Initial residual = 0.09933195, Final residual = 0.00051932297, No Iterations 2
DILUPBiCGStab:  Solving for Uz, Initial residual = 0.10055839, Final residual = 0.00046143312, No Iterations 2
DILUPBiCGStab:  Solving for e, Initial residual = 0.15952608, Final residual = 0.00021151261, No Iterations 5
Min/max T:273.15 350.15
GAMG:  Solving for p_rgh, Initial residual = 0.31452076, Final residual = 0.0013667361, No Iterations 3
time step continuity errors : sum local = 0.0014081601, global = -0.00031897584, cumulative = -20.128848
DILUPBiCGStab:  Solving for w, Initial residual = 0.094151004, Final residual = 0.00064358838, No Iterations 3
bounding magU, min: 0 max: 282.34595 average: 9.2485345
    max leaf temp tl=max(new_Tl) [0 0 0 1 0 0 0] 309.70819k, iteration i=0
    max leaf temp tl=309.84435 K, iteration i=1
    max leaf temp tl=309.84435 K, iteration i=2
    max leaf temp tl=309.84435 K, iteration i=3
    max leaf temp tl=309.84435 K, iteration i=4
    max leaf temp tl=309.84435 K, iteration i=5
    max leaf temp tl=309.84435 K, iteration i=6
    max leaf temp tl=309.84435 K, iteration i=7
    max leaf temp tl=309.84435 K, iteration i=8
    max leaf temp tl=309.84435 K, iteration i=9
    max leaf temp tl=309.84435 K, iteration i=10
    max leaf temp tl=309.84435 K, iteration i=11
    max leaf temp tl=309.84435 K, iteration i=12
    max leaf temp tl=309.84435 K, iteration i=13
    max leaf temp tl=309.84435 K, iteration i=14
    max leaf temp tl=309.84435 K, iteration i=15
Vegetation model:  Solving for Tl, Final residual = 0.028260867, Final relative residual = 9.1209882e-05, No Iterations 15
temperature parameters: max Tl = 309.84274, min T = 273.15, max T = 350.15
resistances: max rs = 2880.0739, max ra = 65.251615
DILUPBiCGStab:  Solving for epsilon, Initial residual = 0.090194775, Final residual = 0.00035233607, No Iterations 1
DILUPBiCGStab:  Solving for k, Initial residual = 0.069939474, Final residual = 6.6381337e-05, No Iterations 1

Internal iteration number: 17
DILUPBiCGStab:  Solving for Ux, Initial residual = 0.10312928, Final residual = 0.00037249607, No Iterations 2
DILUPBiCGStab:  Solving for Uy, Initial residual = 0.096099369, Final residual = 0.0003218415, No Iterations 2
DILUPBiCGStab:  Solving for Uz, Initial residual = 0.10182968, Final residual = 0.00049071015, No Iterations 2
DILUPBiCGStab:  Solving for e, Initial residual = 0.14842843, Final residual = 0.0013581755, No Iterations 4
Min/max T:273.15 350.15
GAMG:  Solving for p_rgh, Initial residual = 0.33183631, Final residual = 0.0013195219, No Iterations 3
time step continuity errors : sum local = 0.0012649047, global = -0.00041234098, cumulative = -20.12926
DILUPBiCGStab:  Solving for w, Initial residual = 0.094054804, Final residual = 0.00089811812, No Iterations 3
bounding magU, min: 0 max: 241.54614 average: 9.3278945
    max leaf temp tl=max(new_Tl) [0 0 0 1 0 0 0] 309.84274k, iteration i=0
    max leaf temp tl=308.89234 K, iteration i=1
    max leaf temp tl=308.89234 K, iteration i=2
    max leaf temp tl=308.89234 K, iteration i=3
    max leaf temp tl=308.89234 K, iteration i=4
    max leaf temp tl=308.89234 K, iteration i=5
    max leaf temp tl=308.89234 K, iteration i=6
    max leaf temp tl=308.89234 K, iteration i=7
    max leaf temp tl=308.89234 K, iteration i=8
    max leaf temp tl=308.89234 K, iteration i=9
    max leaf temp tl=308.89234 K, iteration i=10
    max leaf temp tl=308.89234 K, iteration i=11
    max leaf temp tl=308.89234 K, iteration i=12
    max leaf temp tl=308.89234 K, iteration i=13
    max leaf temp tl=308.89234 K, iteration i=14
    max leaf temp tl=308.89234 K, iteration i=15
Vegetation model:  Solving for Tl, Final residual = 0.027765917, Final relative residual = 8.9888655e-05, No Iterations 15
temperature parameters: max Tl = 308.89528, min T = 273.15, max T = 350.15
resistances: max rs = 2841.9978, max ra = 95.125874
DILUPBiCGStab:  Solving for epsilon, Initial residual = 0.13004595, Final residual = 0.00046125277, No Iterations 1
DILUPBiCGStab:  Solving for k, Initial residual = 0.089542825, Final residual = 8.3036585e-05, No Iterations 1

Internal iteration number: 18
DILUPBiCGStab:  Solving for Ux, Initial residual = 0.10122358, Final residual = 0.00024204683, No Iterations 2
DILUPBiCGStab:  Solving for Uy, Initial residual = 0.092105831, Final residual = 0.00020638495, No Iterations 2
DILUPBiCGStab:  Solving for Uz, Initial residual = 0.10177205, Final residual = 0.00048538016, No Iterations 2
DILUPBiCGStab:  Solving for e, Initial residual = 0.1390085, Final residual = 0.001174278, No Iterations 4
Min/max T:275.7659 350.15
GAMG:  Solving for p_rgh, Initial residual = 0.34069679, Final residual = 0.0013590487, No Iterations 3
time step continuity errors : sum local = 0.0011986583, global = -0.00045883285, cumulative = -20.129719
DILUPBiCGStab:  Solving for w, Initial residual = 0.093675171, Final residual = 0.00066687175, No Iterations 3
bounding magU, min: 0 max: 264.91598 average: 9.3437055
    max leaf temp tl=max(new_Tl) [0 0 0 1 0 0 0] 308.89528k, iteration i=0
    max leaf temp tl=307.36778 K, iteration i=1
    max leaf temp tl=307.36778 K, iteration i=2
    max leaf temp tl=307.36778 K, iteration i=3
    max leaf temp tl=307.36778 K, iteration i=4
    max leaf temp tl=307.36778 K, iteration i=5
    max leaf temp tl=307.36778 K, iteration i=6
    max leaf temp tl=307.36778 K, iteration i=7
    max leaf temp tl=307.36778 K, iteration i=8
    max leaf temp tl=307.36778 K, iteration i=9
    max leaf temp tl=307.36778 K, iteration i=10
    max leaf temp tl=307.36778 K, iteration i=11
    max leaf temp tl=307.36778 K, iteration i=12
    max leaf temp tl=307.36778 K, iteration i=13
    max leaf temp tl=307.36778 K, iteration i=14
    max leaf temp tl=307.36778 K, iteration i=15
    max leaf temp tl=307.36778 K, iteration i=16
Vegetation model:  Solving for Tl, Final residual = 0.022848529, Final relative residual = 7.4336122e-05, No Iterations 16
temperature parameters: max Tl = 307.37125, min T = 275.7659, max T = 350.15
resistances: max rs = 2780.4326, max ra = 73.567284
DILUPBiCGStab:  Solving for epsilon, Initial residual = 0.15853506, Final residual = 0.00058807983, No Iterations 1
DILUPBiCGStab:  Solving for k, Initial residual = 0.10592239, Final residual = 0.00010726817, No Iterations 1

Internal iteration number: 19
DILUPBiCGStab:  Solving for Ux, Initial residual = 0.099721367, Final residual = 0.00046056733, No Iterations 2
DILUPBiCGStab:  Solving for Uy, Initial residual = 0.089477522, Final residual = 0.00080010226, No Iterations 2
DILUPBiCGStab:  Solving for Uz, Initial residual = 0.10053562, Final residual = 0.0004499448, No Iterations 2
DILUPBiCGStab:  Solving for e, Initial residual = 0.13240985, Final residual = 0.0011598038, No Iterations 4
Min/max T:280.14066 350.15
GAMG:  Solving for p_rgh, Initial residual = 0.34698372, Final residual = 0.0011318993, No Iterations 3
time step continuity errors : sum local = 0.00093857113, global = -0.00019489374, cumulative = -20.129914
DILUPBiCGStab:  Solving for w, Initial residual = 0.092804843, Final residual = 0.00053457583, No Iterations 3
bounding magU, min: 0 max: 311.05473 average: 9.3837979
    max leaf temp tl=max(new_Tl) [0 0 0 1 0 0 0] 307.37125k, iteration i=0
    max leaf temp tl=306.41272 K, iteration i=1
    max leaf temp tl=306.41272 K, iteration i=2
    max leaf temp tl=306.41272 K, iteration i=3
    max leaf temp tl=306.41272 K, iteration i=4
    max leaf temp tl=306.41272 K, iteration i=5
    max leaf temp tl=306.41272 K, iteration i=6
    max leaf temp tl=306.41272 K, iteration i=7
    max leaf temp tl=306.41272 K, iteration i=8
    max leaf temp tl=306.41272 K, iteration i=9
    max leaf temp tl=306.41272 K, iteration i=10
    max leaf temp tl=306.41272 K, iteration i=11
    max leaf temp tl=306.41272 K, iteration i=12
    max leaf temp tl=306.41272 K, iteration i=13
    max leaf temp tl=306.41272 K, iteration i=14
    max leaf temp tl=306.41272 K, iteration i=15
    max leaf temp tl=306.41272 K, iteration i=16
    max leaf temp tl=306.41272 K, iteration i=17
Vegetation model:  Solving for Tl, Final residual = 0.021633524, Final relative residual = 7.0602565e-05, No Iterations 17
temperature parameters: max Tl = 306.39952, min T = 280.14066, max T = 350.15
resistances: max rs = 2740.9042, max ra = 117.31253
DILUPBiCGStab:  Solving for epsilon, Initial residual = 0.17764372, Final residual = 0.00074570645, No Iterations 1
DILUPBiCGStab:  Solving for k, Initial residual = 0.11767091, Final residual = 0.00013966801, No Iterations 1

Internal iteration number: 20
DILUPBiCGStab:  Solving for Ux, Initial residual = 0.098467877, Final residual = 0.00064086849, No Iterations 2
DILUPBiCGStab:  Solving for Uy, Initial residual = 0.087380788, Final residual = 0.00058721055, No Iterations 2
DILUPBiCGStab:  Solving for Uz, Initial residual = 0.09631165, Final residual = 0.00048179363, No Iterations 2
DILUPBiCGStab:  Solving for e, Initial residual = 0.12751463, Final residual = 0.0011491308, No Iterations 4
Min/max T:283.45914 350.15
GAMG:  Solving for p_rgh, Initial residual = 0.33901937, Final residual = 0.001074363, No Iterations 3
time step continuity errors : sum local = 0.00084613546, global = -0.00010033265, cumulative = -20.130014
DILUPBiCGStab:  Solving for w, Initial residual = 0.097107331, Final residual = 0.00065365117, No Iterations 3
bounding magU, min: 0 max: 348.43961 average: 9.4480129
    max leaf temp tl=max(new_Tl) [0 0 0 1 0 0 0] 306.39952k, iteration i=0
    max leaf temp tl=306.54163 K, iteration i=1
    max leaf temp tl=306.54163 K, iteration i=2
    max leaf temp tl=306.54163 K, iteration i=3
    max leaf temp tl=306.54163 K, iteration i=4
    max leaf temp tl=306.54163 K, iteration i=5
    max leaf temp tl=306.54163 K, iteration i=6
    max leaf temp tl=306.54163 K, iteration i=7
    max leaf temp tl=306.54163 K, iteration i=8
    max leaf temp tl=306.54163 K, iteration i=9
    max leaf temp tl=306.54163 K, iteration i=10
    max leaf temp tl=306.54163 K, iteration i=11
    max leaf temp tl=306.54163 K, iteration i=12
    max leaf temp tl=306.54163 K, iteration i=13
    max leaf temp tl=306.54163 K, iteration i=14
    max leaf temp tl=306.54163 K, iteration i=15
    max leaf temp tl=306.54163 K, iteration i=16
Vegetation model:  Solving for Tl, Final residual = 0.028800882, Final relative residual = 9.3954226e-05, No Iterations 16
temperature parameters: max Tl = 306.52933, min T = 283.45914, max T = 350.15
resistances: max rs = 2746.1258, max ra = 81.036151
DILUPBiCGStab:  Solving for epsilon, Initial residual = 0.18623709, Final residual = 0.00096823978, No Iterations 1
DILUPBiCGStab:  Solving for k, Initial residual = 0.1285118, Final residual = 0.0001728348, No Iterations 1

Internal iteration number: 21
DILUPBiCGStab:  Solving for Ux, Initial residual = 0.096586884, Final residual = 0.00023978611, No Iterations 2
DILUPBiCGStab:  Solving for Uy, Initial residual = 0.084172521, Final residual = 0.00053652794, No Iterations 2
DILUPBiCGStab:  Solving for Uz, Initial residual = 0.091143148, Final residual = 0.00040942082, No Iterations 2
DILUPBiCGStab:  Solving for e, Initial residual = 0.12305786, Final residual = 0.0010446563, No Iterations 3
Min/max T:284.48839 350.15
GAMG:  Solving for p_rgh, Initial residual = 0.33646427, Final residual = 0.00092553802, No Iterations 3
time step continuity errors : sum local = 0.0006858038, global = 0.00012579682, cumulative = -20.129888
DILUPBiCGStab:  Solving for w, Initial residual = 0.095261841, Final residual = 0.00076623639, No Iterations 3
bounding magU, min: 0 max: 376.27224 average: 9.504174
    max leaf temp tl=max(new_Tl) [0 0 0 1 0 0 0] 306.52933k, iteration i=0
    max leaf temp tl=305.98856 K, iteration i=1
    max leaf temp tl=305.98856 K, iteration i=2
    max leaf temp tl=305.98856 K, iteration i=3
    max leaf temp tl=305.98856 K, iteration i=4
    max leaf temp tl=305.98856 K, iteration i=5
    max leaf temp tl=305.98856 K, iteration i=6
    max leaf temp tl=305.98856 K, iteration i=7
    max leaf temp tl=305.98856 K, iteration i=8
    max leaf temp tl=305.98856 K, iteration i=9
    max leaf temp tl=305.98856 K, iteration i=10
    max leaf temp tl=305.98856 K, iteration i=11
    max leaf temp tl=305.98856 K, iteration i=12
    max leaf temp tl=305.98856 K, iteration i=13
    max leaf temp tl=305.98856 K, iteration i=14
    max leaf temp tl=305.98856 K, iteration i=15
Vegetation model:  Solving for Tl, Final residual = 0.028683562, Final relative residual = 9.3740636e-05, No Iterations 15
temperature parameters: max Tl = 305.98221, min T = 284.48839, max T = 350.15
resistances: max rs = 2723.3744, max ra = 126.30887
DILUPBiCGStab:  Solving for epsilon, Initial residual = 0.18637527, Final residual = 0.0012878826, No Iterations 1
DILUPBiCGStab:  Solving for k, Initial residual = 0.13693177, Final residual = 0.00019265014, No Iterations 1

Internal iteration number: 22
DILUPBiCGStab:  Solving for Ux, Initial residual = 0.094310271, Final residual = 0.00070392927, No Iterations 2
DILUPBiCGStab:  Solving for Uy, Initial residual = 0.081073994, Final residual = 0.00052773204, No Iterations 2
DILUPBiCGStab:  Solving for Uz, Initial residual = 0.086131555, Final residual = 0.00037969965, No Iterations 2
DILUPBiCGStab:  Solving for e, Initial residual = 0.11858873, Final residual = 0.0010686914, No Iterations 3
Min/max T:279.41167 350.15
GAMG:  Solving for p_rgh, Initial residual = 0.32336803, Final residual = 0.00099492371, No Iterations 3
time step continuity errors : sum local = 0.00068652786, global = -6.1409389e-05, cumulative = -20.12995
DILUPBiCGStab:  Solving for w, Initial residual = 0.10994917, Final residual = 0.00078918012, No Iterations 3
bounding magU, min: 0 max: 386.56048 average: 9.5419246
    max leaf temp tl=max(new_Tl) [0 0 0 1 0 0 0] 305.98221k, iteration i=0
    max leaf temp tl=305.3007 K, iteration i=1
    max leaf temp tl=305.3007 K, iteration i=2
    max leaf temp tl=305.3007 K, iteration i=3
    max leaf temp tl=305.3007 K, iteration i=4
    max leaf temp tl=305.3007 K, iteration i=5
    max leaf temp tl=305.3007 K, iteration i=6
    max leaf temp tl=305.3007 K, iteration i=7
    max leaf temp tl=305.3007 K, iteration i=8
    max leaf temp tl=305.3007 K, iteration i=9
    max leaf temp tl=305.3007 K, iteration i=10
    max leaf temp tl=305.3007 K, iteration i=11
    max leaf temp tl=305.3007 K, iteration i=12
    max leaf temp tl=305.3007 K, iteration i=13
    max leaf temp tl=305.3007 K, iteration i=14
    max leaf temp tl=305.3007 K, iteration i=15
Vegetation model:  Solving for Tl, Final residual = 0.023435548, Final relative residual = 7.6762183e-05, No Iterations 15
temperature parameters: max Tl = 305.30043, min T = 279.41167, max T = 350.15
resistances: max rs = 2695.1366, max ra = 137.58781
DILUPBiCGStab:  Solving for epsilon, Initial residual = 0.18025693, Final residual = 0.0017145713, No Iterations 1
DILUPBiCGStab:  Solving for k, Initial residual = 0.13970544, Final residual = 0.00018706599, No Iterations 1

Internal iteration number: 23
DILUPBiCGStab:  Solving for Ux, Initial residual = 0.092897182, Final residual = 0.00086811845, No Iterations 2
DILUPBiCGStab:  Solving for Uy, Initial residual = 0.078625546, Final residual = 0.00028193787, No Iterations 2
DILUPBiCGStab:  Solving for Uz, Initial residual = 0.082707715, Final residual = 0.000382791, No Iterations 2
DILUPBiCGStab:  Solving for e, Initial residual = 0.11443195, Final residual = 0.00060152825, No Iterations 4
Min/max T:273.15 350.15
GAMG:  Solving for p_rgh, Initial residual = 0.30905307, Final residual = 0.00096745517, No Iterations 3
time step continuity errors : sum local = 0.00061898439, global = -0.00012050447, cumulative = -20.13007
DILUPBiCGStab:  Solving for w, Initial residual = 0.10015535, Final residual = 0.00069871193, No Iterations 3
bounding magU, min: 0 max: 368.90204 average: 9.5737673
    max leaf temp tl=max(new_Tl) [0 0 0 1 0 0 0] 305.30043k, iteration i=0
    max leaf temp tl=304.99864 K, iteration i=1
    max leaf temp tl=304.99864 K, iteration i=2
    max leaf temp tl=304.99864 K, iteration i=3
    max leaf temp tl=304.99864 K, iteration i=4
    max leaf temp tl=304.99864 K, iteration i=5
    max leaf temp tl=304.99864 K, iteration i=6
    max leaf temp tl=304.99864 K, iteration i=7
    max leaf temp tl=304.99864 K, iteration i=8
    max leaf temp tl=304.99864 K, iteration i=9
    max leaf temp tl=304.99864 K, iteration i=10
    max leaf temp tl=304.99864 K, iteration i=11
    max leaf temp tl=304.99864 K, iteration i=12
    max leaf temp tl=304.99864 K, iteration i=13
    max leaf temp tl=304.99864 K, iteration i=14
    max leaf temp tl=304.99864 K, iteration i=15
    max leaf temp tl=304.99864 K, iteration i=16
Vegetation model:  Solving for Tl, Final residual = 0.024246044, Final relative residual = 7.949558e-05, No Iterations 16
temperature parameters: max Tl = 304.99884, min T = 273.15, max T = 350.15
resistances: max rs = 2682.628, max ra = 104.21794
DILUPBiCGStab:  Solving for epsilon, Initial residual = 0.17134089, Final residual = 8.0666719e-05, No Iterations 1
DILUPBiCGStab:  Solving for k, Initial residual = 0.13338025, Final residual = 0.00016554683, No Iterations 1

Internal iteration number: 24
DILUPBiCGStab:  Solving for Ux, Initial residual = 0.092755193, Final residual = 0.00082415336, No Iterations 2
DILUPBiCGStab:  Solving for Uy, Initial residual = 0.075510845, Final residual = 0.00048731974, No Iterations 2
DILUPBiCGStab:  Solving for Uz, Initial residual = 0.085516678, Final residual = 0.00038536523, No Iterations 2
DILUPBiCGStab:  Solving for e, Initial residual = 0.11167045, Final residual = 0.00044804623, No Iterations 4
Min/max T:273.15 350.15
GAMG:  Solving for p_rgh, Initial residual = 0.30946674, Final residual = 0.0012855766, No Iterations 3
time step continuity errors : sum local = 0.00075449143, global = -0.00041673892, cumulative = -20.130487
DILUPBiCGStab:  Solving for w, Initial residual = 0.10491839, Final residual = 0.00070329691, No Iterations 3
bounding magU, min: 0 max: 328.02974 average: 9.6137421
    max leaf temp tl=max(new_Tl) [0 0 0 1 0 0 0] 304.99884k, iteration i=0
    max leaf temp tl=304.77597 K, iteration i=1
    max leaf temp tl=304.77597 K, iteration i=2
    max leaf temp tl=304.77597 K, iteration i=3
    max leaf temp tl=304.77597 K, iteration i=4
    max leaf temp tl=304.77597 K, iteration i=5
    max leaf temp tl=304.77597 K, iteration i=6
    max leaf temp tl=304.77597 K, iteration i=7
    max leaf temp tl=304.77597 K, iteration i=8
    max leaf temp tl=304.77597 K, iteration i=9
    max leaf temp tl=304.77597 K, iteration i=10
    max leaf temp tl=304.77597 K, iteration i=11
    max leaf temp tl=304.77597 K, iteration i=12
    max leaf temp tl=304.77597 K, iteration i=13
    max leaf temp tl=304.77597 K, iteration i=14
    max leaf temp tl=304.77597 K, iteration i=15
    max leaf temp tl=304.77597 K, iteration i=16
Vegetation model:  Solving for Tl, Final residual = 0.024120923, Final relative residual = 7.9143128e-05, No Iterations 16
temperature parameters: max Tl = 304.77616, min T = 273.15, max T = 350.15
resistances: max rs = 2673.3523, max ra = 134.0903
DILUPBiCGStab:  Solving for epsilon, Initial residual = 0.1672711, Final residual = 9.6530224e-05, No Iterations 1
DILUPBiCGStab:  Solving for k, Initial residual = 0.11746074, Final residual = 0.00012642917, No Iterations 1

Internal iteration number: 25
DILUPBiCGStab:  Solving for Ux, Initial residual = 0.091351386, Final residual = 0.00053910945, No Iterations 2
DILUPBiCGStab:  Solving for Uy, Initial residual = 0.07388219, Final residual = 0.0004512279, No Iterations 2
DILUPBiCGStab:  Solving for Uz, Initial residual = 0.092757759, Final residual = 0.00039395753, No Iterations 2
DILUPBiCGStab:  Solving for e, Initial residual = 0.10857839, Final residual = 0.00043292453, No Iterations 4
Min/max T:273.15 350.15
GAMG:  Solving for p_rgh, Initial residual = 0.31808331, Final residual = 0.0011019384, No Iterations 3
time step continuity errors : sum local = 0.00058967259, global = -0.00025084494, cumulative = -20.130738
DILUPBiCGStab:  Solving for w, Initial residual = 0.094688269, Final residual = 0.00081733348, No Iterations 3
bounding magU, min: 0 max: 256.08256 average: 9.6605043
    max leaf temp tl=max(new_Tl) [0 0 0 1 0 0 0] 304.77616k, iteration i=0
    max leaf temp tl=304.39966 K, iteration i=1
    max leaf temp tl=304.39966 K, iteration i=2
    max leaf temp tl=304.39966 K, iteration i=3
    max leaf temp tl=304.39966 K, iteration i=4
    max leaf temp tl=304.39966 K, iteration i=5
    max leaf temp tl=304.39966 K, iteration i=6
    max leaf temp tl=304.39966 K, iteration i=7
    max leaf temp tl=304.39966 K, iteration i=8
    max leaf temp tl=304.39966 K, iteration i=9
    max leaf temp tl=304.39966 K, iteration i=10
    max leaf temp tl=304.39966 K, iteration i=11
    max leaf temp tl=304.39966 K, iteration i=12
    max leaf temp tl=304.39966 K, iteration i=13
    max leaf temp tl=304.39966 K, iteration i=14
    max leaf temp tl=304.39966 K, iteration i=15
Vegetation model:  Solving for Tl, Final residual = 0.027572262, Final relative residual = 9.0579149e-05, No Iterations 15
temperature parameters: max Tl = 304.39943, min T = 273.15, max T = 350.15
resistances: max rs = 2657.6007, max ra = 105.59836
DILUPBiCGStab:  Solving for epsilon, Initial residual = 0.16193552, Final residual = 9.5340229e-05, No Iterations 1
DILUPBiCGStab:  Solving for k, Initial residual = 0.094762082, Final residual = 8.2705319e-05, No Iterations 1

Internal iteration number: 26
DILUPBiCGStab:  Solving for Ux, Initial residual = 0.088423023, Final residual = 0.0005459079, No Iterations 2
DILUPBiCGStab:  Solving for Uy, Initial residual = 0.072876073, Final residual = 0.00046506803, No Iterations 2
DILUPBiCGStab:  Solving for Uz, Initial residual = 0.10008026, Final residual = 0.00042063148, No Iterations 2
DILUPBiCGStab:  Solving for e, Initial residual = 0.10335253, Final residual = 0.00056767121, No Iterations 4
Min/max T:277.59486 350.15
GAMG:  Solving for p_rgh, Initial residual = 0.32323105, Final residual = 0.0012911899, No Iterations 3
time step continuity errors : sum local = 0.00062980114, global = -0.00028987132, cumulative = -20.131028
DILUPBiCGStab:  Solving for w, Initial residual = 0.092187082, Final residual = 0.00075309847, No Iterations 3
bounding magU, min: 0 max: 182.96207 average: 9.7148292
    max leaf temp tl=max(new_Tl) [0 0 0 1 0 0 0] 304.39943k, iteration i=0
    max leaf temp tl=303.90497 K, iteration i=1
    max leaf temp tl=303.90497 K, iteration i=2
    max leaf temp tl=303.90497 K, iteration i=3
    max leaf temp tl=303.90497 K, iteration i=4
    max leaf temp tl=303.90497 K, iteration i=5
    max leaf temp tl=303.90497 K, iteration i=6
    max leaf temp tl=303.90497 K, iteration i=7
    max leaf temp tl=303.90497 K, iteration i=8
    max leaf temp tl=303.90497 K, iteration i=9
    max leaf temp tl=303.90497 K, iteration i=10
    max leaf temp tl=303.90497 K, iteration i=11
    max leaf temp tl=303.90497 K, iteration i=12
    max leaf temp tl=303.90497 K, iteration i=13
    max leaf temp tl=303.90497 K, iteration i=14
Vegetation model:  Solving for Tl, Final residual = 0.02973452, Final relative residual = 9.7841504e-05, No Iterations 14
temperature parameters: max Tl = 303.90662, min T = 277.59486, max T = 350.15
resistances: max rs = 2636.7791, max ra = 134.94348
DILUPBiCGStab:  Solving for epsilon, Initial residual = 0.13991787, Final residual = 8.4966889e-05, No Iterations 1
DILUPBiCGStab:  Solving for k, Initial residual = 0.072627643, Final residual = 9.747228e-05, No Iterations 1

Internal iteration number: 27
DILUPBiCGStab:  Solving for Ux, Initial residual = 0.085243104, Final residual = 0.000842388, No Iterations 2
DILUPBiCGStab:  Solving for Uy, Initial residual = 0.070910099, Final residual = 0.00045743949, No Iterations 2
DILUPBiCGStab:  Solving for Uz, Initial residual = 0.10443016, Final residual = 0.00048151356, No Iterations 2
DILUPBiCGStab:  Solving for e, Initial residual = 0.092392211, Final residual = 0.00071780254, No Iterations 3
Min/max T:282.85787 350.15
GAMG:  Solving for p_rgh, Initial residual = 0.32508458, Final residual = 0.0012834384, No Iterations 3
time step continuity errors : sum local = 0.00056870356, global = 0.00011907101, cumulative = -20.130909
DILUPBiCGStab:  Solving for w, Initial residual = 0.089207794, Final residual = 0.00041564012, No Iterations 3
bounding magU, min: 0 max: 148.29984 average: 9.7774642
    max leaf temp tl=max(new_Tl) [0 0 0 1 0 0 0] 303.90662k, iteration i=0
    max leaf temp tl=303.42298 K, iteration i=1
    max leaf temp tl=303.42298 K, iteration i=2
    max leaf temp tl=303.42298 K, iteration i=3
    max leaf temp tl=303.42298 K, iteration i=4
    max leaf temp tl=303.42298 K, iteration i=5
    max leaf temp tl=303.42298 K, iteration i=6
    max leaf temp tl=303.42298 K, iteration i=7
    max leaf temp tl=303.42298 K, iteration i=8
    max leaf temp tl=303.42298 K, iteration i=9
    max leaf temp tl=303.42298 K, iteration i=10
    max leaf temp tl=303.42298 K, iteration i=11
    max leaf temp tl=303.42298 K, iteration i=12
    max leaf temp tl=303.42298 K, iteration i=13
    max leaf temp tl=303.42298 K, iteration i=14
    max leaf temp tl=303.42298 K, iteration i=15
Vegetation model:  Solving for Tl, Final residual = 0.027036643, Final relative residual = 8.9105458e-05, No Iterations 15
temperature parameters: max Tl = 303.42431, min T = 282.85787, max T = 350.15
resistances: max rs = 2616.5365, max ra = 195.34496
DILUPBiCGStab:  Solving for epsilon, Initial residual = 0.095678498, Final residual = 7.0496473e-05, No Iterations 1
DILUPBiCGStab:  Solving for k, Initial residual = 0.068281517, Final residual = 8.8629836e-05, No Iterations 1

Internal iteration number: 28
DILUPBiCGStab:  Solving for Ux, Initial residual = 0.083111647, Final residual = 0.00077748267, No Iterations 2
DILUPBiCGStab:  Solving for Uy, Initial residual = 0.068930781, Final residual = 0.00043629505, No Iterations 2
DILUPBiCGStab:  Solving for Uz, Initial residual = 0.10340008, Final residual = 0.00050667023, No Iterations 2
DILUPBiCGStab:  Solving for e, Initial residual = 0.079058097, Final residual = 0.00032136396, No Iterations 4
Min/max T:283.14861 350.15
GAMG:  Solving for p_rgh, Initial residual = 0.31874861, Final residual = 0.0011300488, No Iterations 3
time step continuity errors : sum local = 0.00046517609, global = 0.00013705689, cumulative = -20.130772
DILUPBiCGStab:  Solving for w, Initial residual = 0.085698445, Final residual = 0.00027390895, No Iterations 4
bounding magU, min: 0 max: 142.86102 average: 9.8435963
    max leaf temp tl=max(new_Tl) [0 0 0 1 0 0 0] 303.42431k, iteration i=0
    max leaf temp tl=302.96662 K, iteration i=1
    max leaf temp tl=302.96662 K, iteration i=2
    max leaf temp tl=302.96662 K, iteration i=3
    max leaf temp tl=302.96662 K, iteration i=4
    max leaf temp tl=302.96662 K, iteration i=5
    max leaf temp tl=302.96662 K, iteration i=6
    max leaf temp tl=302.96662 K, iteration i=7
    max leaf temp tl=302.96662 K, iteration i=8
    max leaf temp tl=302.96662 K, iteration i=9
    max leaf temp tl=302.96662 K, iteration i=10
    max leaf temp tl=302.96662 K, iteration i=11
    max leaf temp tl=302.96662 K, iteration i=12
    max leaf temp tl=302.96662 K, iteration i=13
    max leaf temp tl=302.96662 K, iteration i=14
    max leaf temp tl=302.96662 K, iteration i=15
Vegetation model:  Solving for Tl, Final residual = 0.028522894, Final relative residual = 9.4145335e-05, No Iterations 15
temperature parameters: max Tl = 302.96799, min T = 283.14861, max T = 350.15
resistances: max rs = 2597.0709, max ra = 118.15169
DILUPBiCGStab:  Solving for epsilon, Initial residual = 0.089797809, Final residual = 6.5064407e-05, No Iterations 1
DILUPBiCGStab:  Solving for k, Initial residual = 0.076046837, Final residual = 8.1561184e-05, No Iterations 1

Internal iteration number: 29
DILUPBiCGStab:  Solving for Ux, Initial residual = 0.080906206, Final residual = 0.00075879763, No Iterations 2
DILUPBiCGStab:  Solving for Uy, Initial residual = 0.068831456, Final residual = 0.00045786215, No Iterations 2
DILUPBiCGStab:  Solving for Uz, Initial residual = 0.10083732, Final residual = 0.00051423125, No Iterations 2
DILUPBiCGStab:  Solving for e, Initial residual = 0.069174172, Final residual = 0.00040460884, No Iterations 4
Min/max T:283.50879 350.15
GAMG:  Solving for p_rgh, Initial residual = 0.30922494, Final residual = 0.0011140506, No Iterations 3
time step continuity errors : sum local = 0.00043588521, global = 0.00015193718, cumulative = -20.13062
DILUPBiCGStab:  Solving for w, Initial residual = 0.086205844, Final residual = 0.00046851682, No Iterations 3
bounding magU, min: 0 max: 138.12455 average: 9.9166409
    max leaf temp tl=max(new_Tl) [0 0 0 1 0 0 0] 302.96799k, iteration i=0
    max leaf temp tl=302.57989 K, iteration i=1
    max leaf temp tl=302.57989 K, iteration i=2
    max leaf temp tl=302.57989 K, iteration i=3
    max leaf temp tl=302.57989 K, iteration i=4
    max leaf temp tl=302.57989 K, iteration i=5
    max leaf temp tl=302.57989 K, iteration i=6
    max leaf temp tl=302.57989 K, iteration i=7
    max leaf temp tl=302.57989 K, iteration i=8
    max leaf temp tl=302.57989 K, iteration i=9
    max leaf temp tl=302.57989 K, iteration i=10
    max leaf temp tl=302.57989 K, iteration i=11
    max leaf temp tl=302.57989 K, iteration i=12
    max leaf temp tl=302.57989 K, iteration i=13
    max leaf temp tl=302.57989 K, iteration i=14
    max leaf temp tl=302.57989 K, iteration i=15
Vegetation model:  Solving for Tl, Final residual = 0.025879441, Final relative residual = 8.5529285e-05, No Iterations 15
temperature parameters: max Tl = 302.58137, min T = 283.50879, max T = 350.15
resistances: max rs = 2580.5265, max ra = 126.6
DILUPBiCGStab:  Solving for epsilon, Initial residual = 0.096918328, Final residual = 6.988315e-05, No Iterations 1
DILUPBiCGStab:  Solving for k, Initial residual = 0.069361935, Final residual = 7.9069433e-05, No Iterations 1

Internal iteration number: 30
DILUPBiCGStab:  Solving for Ux, Initial residual = 0.07857904, Final residual = 0.00077162915, No Iterations 2
DILUPBiCGStab:  Solving for Uy, Initial residual = 0.069186782, Final residual = 0.00047889208, No Iterations 2
DILUPBiCGStab:  Solving for Uz, Initial residual = 0.097795587, Final residual = 0.00052503318, No Iterations 2
DILUPBiCGStab:  Solving for e, Initial residual = 0.062808183, Final residual = 0.00035639434, No Iterations 4
Min/max T:283.30498 350.15
GAMG:  Solving for p_rgh, Initial residual = 0.29377167, Final residual = 0.00074728332, No Iterations 3
time step continuity errors : sum local = 0.00028403388, global = 5.870763e-05, cumulative = -20.130561
DILUPBiCGStab:  Solving for w, Initial residual = 0.087188642, Final residual = 0.00053638228, No Iterations 3
bounding magU, min: 0 max: 133.42927 average: 10.00798
    max leaf temp tl=max(new_Tl) [0 0 0 1 0 0 0] 302.58137k, iteration i=0
    max leaf temp tl=301.98085 K, iteration i=1
    max leaf temp tl=301.98085 K, iteration i=2
    max leaf temp tl=301.98085 K, iteration i=3
    max leaf temp tl=301.98085 K, iteration i=4
    max leaf temp tl=301.98085 K, iteration i=5
    max leaf temp tl=301.98085 K, iteration i=6
    max leaf temp tl=301.98085 K, iteration i=7
    max leaf temp tl=301.98085 K, iteration i=8
    max leaf temp tl=301.98085 K, iteration i=9
    max leaf temp tl=301.98085 K, iteration i=10
    max leaf temp tl=301.98085 K, iteration i=11
    max leaf temp tl=301.98085 K, iteration i=12
    max leaf temp tl=301.98085 K, iteration i=13
    max leaf temp tl=301.98085 K, iteration i=14
    max leaf temp tl=301.98085 K, iteration i=15
Vegetation model:  Solving for Tl, Final residual = 0.021870517, Final relative residual = 7.2423522e-05, No Iterations 15
temperature parameters: max Tl = 301.98188, min T = 283.30498, max T = 350.15
resistances: max rs = 2554.6139, max ra = 61.542659
DILUPBiCGStab:  Solving for epsilon, Initial residual = 0.081572603, Final residual = 7.3689904e-05, No Iterations 1
DILUPBiCGStab:  Solving for k, Initial residual = 0.057654678, Final residual = 7.4451221e-05, No Iterations 1

Internal iteration number: 31
DILUPBiCGStab:  Solving for Ux, Initial residual = 0.077068767, Final residual = 0.00074979682, No Iterations 2
DILUPBiCGStab:  Solving for Uy, Initial residual = 0.069199005, Final residual = 0.00048931426, No Iterations 2
DILUPBiCGStab:  Solving for Uz, Initial residual = 0.094163148, Final residual = 0.00053715958, No Iterations 2
DILUPBiCGStab:  Solving for e, Initial residual = 0.057782214, Final residual = 0.0003562326, No Iterations 4
Min/max T:282.81349 350.15
GAMG:  Solving for p_rgh, Initial residual = 0.28804284, Final residual = 0.00094743301, No Iterations 3
time step continuity errors : sum local = 0.0003444707, global = 0.00012872224, cumulative = -20.130432
DILUPBiCGStab:  Solving for w, Initial residual = 0.081974136, Final residual = 0.00053956865, No Iterations 3
bounding magU, min: 0 max: 130.17963 average: 10.112601
    max leaf temp tl=max(new_Tl) [0 0 0 1 0 0 0] 301.98188k, iteration i=0
    max leaf temp tl=301.24941 K, iteration i=1
    max leaf temp tl=301.24941 K, iteration i=2
    max leaf temp tl=301.24941 K, iteration i=3
    max leaf temp tl=301.24941 K, iteration i=4
    max leaf temp tl=301.24941 K, iteration i=5
    max leaf temp tl=301.24941 K, iteration i=6
    max leaf temp tl=301.24941 K, iteration i=7
    max leaf temp tl=301.24941 K, iteration i=8
    max leaf temp tl=301.24941 K, iteration i=9
    max leaf temp tl=301.24941 K, iteration i=10
    max leaf temp tl=301.24941 K, iteration i=11
    max leaf temp tl=301.24941 K, iteration i=12
    max leaf temp tl=301.24941 K, iteration i=13
    max leaf temp tl=301.24941 K, iteration i=14
    max leaf temp tl=301.24941 K, iteration i=15
Vegetation model:  Solving for Tl, Final residual = 0.024651844, Final relative residual = 8.1832008e-05, No Iterations 15
temperature parameters: max Tl = 301.25224, min T = 282.81349, max T = 350.15
resistances: max rs = 2522.7498, max ra = 54.250101
DILUPBiCGStab:  Solving for epsilon, Initial residual = 0.06502197, Final residual = 7.1520001e-05, No Iterations 1
DILUPBiCGStab:  Solving for k, Initial residual = 0.046299226, Final residual = 6.5162744e-05, No Iterations 1

Internal iteration number: 32
DILUPBiCGStab:  Solving for Ux, Initial residual = 0.075484439, Final residual = 0.00013668445, No Iterations 2
DILUPBiCGStab:  Solving for Uy, Initial residual = 0.068863943, Final residual = 0.00050368214, No Iterations 2
DILUPBiCGStab:  Solving for Uz, Initial residual = 0.089504657, Final residual = 0.00054101258, No Iterations 2
DILUPBiCGStab:  Solving for e, Initial residual = 0.053231913, Final residual = 0.00013710299, No Iterations 5
Min/max T:282.6752 350.15
GAMG:  Solving for p_rgh, Initial residual = 0.28019719, Final residual = 0.00085358997, No Iterations 3
time step continuity errors : sum local = 0.00029945218, global = 6.2332806e-05, cumulative = -20.13037
DILUPBiCGStab:  Solving for w, Initial residual = 0.076765586, Final residual = 0.0005187265, No Iterations 3
bounding magU, min: 0 max: 127.11689 average: 10.215983
    max leaf temp tl=max(new_Tl) [0 0 0 1 0 0 0] 301.25224k, iteration i=0
    max leaf temp tl=300.47549 K, iteration i=1
    max leaf temp tl=300.47549 K, iteration i=2
    max leaf temp tl=300.47549 K, iteration i=3
    max leaf temp tl=300.47549 K, iteration i=4
    max leaf temp tl=300.47549 K, iteration i=5
    max leaf temp tl=300.47549 K, iteration i=6
    max leaf temp tl=300.47549 K, iteration i=7
    max leaf temp tl=300.47549 K, iteration i=8
    max leaf temp tl=300.47549 K, iteration i=9
    max leaf temp tl=300.47549 K, iteration i=10
    max leaf temp tl=300.47549 K, iteration i=11
    max leaf temp tl=300.47549 K, iteration i=12
    max leaf temp tl=300.47549 K, iteration i=13
    max leaf temp tl=300.47549 K, iteration i=14
    max leaf temp tl=300.47549 K, iteration i=15
Vegetation model:  Solving for Tl, Final residual = 0.024383899, Final relative residual = 8.1151043e-05, No Iterations 15
temperature parameters: max Tl = 300.47708, min T = 282.6752, max T = 350.15
resistances: max rs = 2488.4308, max ra = 82.607621
DILUPBiCGStab:  Solving for epsilon, Initial residual = 0.060726506, Final residual = 6.8904458e-05, No Iterations 1
DILUPBiCGStab:  Solving for k, Initial residual = 0.041667731, Final residual = 5.8980455e-05, No Iterations 1

Internal iteration number: 33
DILUPBiCGStab:  Solving for Ux, Initial residual = 0.074084072, Final residual = 0.00013439754, No Iterations 2
DILUPBiCGStab:  Solving for Uy, Initial residual = 0.068820971, Final residual = 0.00051271059, No Iterations 2
DILUPBiCGStab:  Solving for Uz, Initial residual = 0.085815755, Final residual = 0.00053816604, No Iterations 2
DILUPBiCGStab:  Solving for e, Initial residual = 0.049929257, Final residual = 9.4832959e-05, No Iterations 5
Min/max T:282.41579 350.15
GAMG:  Solving for p_rgh, Initial residual = 0.27339753, Final residual = 0.0010108266, No Iterations 3
time step continuity errors : sum local = 0.00034293257, global = 0.00013298362, cumulative = -20.130237
DILUPBiCGStab:  Solving for w, Initial residual = 0.073064606, Final residual = 0.00048114962, No Iterations 3
bounding magU, min: 0 max: 124.9739 average: 10.313139
    max leaf temp tl=max(new_Tl) [0 0 0 1 0 0 0] 300.47708k, iteration i=0
    max leaf temp tl=299.4741 K, iteration i=1
    max leaf temp tl=299.4741 K, iteration i=2
    max leaf temp tl=299.4741 K, iteration i=3
    max leaf temp tl=299.4741 K, iteration i=4
    max leaf temp tl=299.4741 K, iteration i=5
    max leaf temp tl=299.4741 K, iteration i=6
    max leaf temp tl=299.4741 K, iteration i=7
    max leaf temp tl=299.4741 K, iteration i=8
    max leaf temp tl=299.4741 K, iteration i=9
    max leaf temp tl=299.4741 K, iteration i=10
    max leaf temp tl=299.4741 K, iteration i=11
    max leaf temp tl=299.4741 K, iteration i=12
    max leaf temp tl=299.4741 K, iteration i=13
    max leaf temp tl=299.4741 K, iteration i=14
Vegetation model:  Solving for Tl, Final residual = 0.028459204, Final relative residual = 9.5030604e-05, No Iterations 14
temperature parameters: max Tl = 299.48063, min T = 282.41579, max T = 350.15
resistances: max rs = 2443.4983, max ra = 77.902058
DILUPBiCGStab:  Solving for epsilon, Initial residual = 0.054442396, Final residual = 6.5654994e-05, No Iterations 1
DILUPBiCGStab:  Solving for k, Initial residual = 0.036600604, Final residual = 5.3470483e-05, No Iterations 1

Internal iteration number: 34
DILUPBiCGStab:  Solving for Ux, Initial residual = 0.072801167, Final residual = 0.00066364118, No Iterations 2
DILUPBiCGStab:  Solving for Uy, Initial residual = 0.068780698, Final residual = 0.00051800464, No Iterations 2
DILUPBiCGStab:  Solving for Uz, Initial residual = 0.083535387, Final residual = 0.0005324625, No Iterations 2
DILUPBiCGStab:  Solving for e, Initial residual = 0.047373605, Final residual = 0.00041695579, No Iterations 4
Min/max T:282.5201 350.15
GAMG:  Solving for p_rgh, Initial residual = 0.2591263, Final residual = 0.00079158595, No Iterations 3
time step continuity errors : sum local = 0.00026677395, global = 5.638944e-05, cumulative = -20.130181
DILUPBiCGStab:  Solving for w, Initial residual = 0.068603525, Final residual = 0.00045259756, No Iterations 3
bounding magU, min: 0 max: 122.10714 average: 10.400013
    max leaf temp tl=max(new_Tl) [0 0 0 1 0 0 0] 299.48063k, iteration i=0
    max leaf temp tl=297.97926 K, iteration i=1
    max leaf temp tl=297.97926 K, iteration i=2
    max leaf temp tl=297.97926 K, iteration i=3
    max leaf temp tl=297.97926 K, iteration i=4
    max leaf temp tl=297.97926 K, iteration i=5
    max leaf temp tl=297.97926 K, iteration i=6
    max leaf temp tl=297.97926 K, iteration i=7
    max leaf temp tl=297.97926 K, iteration i=8
    max leaf temp tl=297.97926 K, iteration i=9
    max leaf temp tl=297.97926 K, iteration i=10
    max leaf temp tl=297.97926 K, iteration i=11
    max leaf temp tl=297.97926 K, iteration i=12
    max leaf temp tl=297.97926 K, iteration i=13
    max leaf temp tl=297.97926 K, iteration i=14
Vegetation model:  Solving for Tl, Final residual = 0.021733101, Final relative residual = 7.2934947e-05, No Iterations 14
temperature parameters: max Tl = 297.98651, min T = 282.5201, max T = 350.15
resistances: max rs = 2374.5325, max ra = 90.605546
DILUPBiCGStab:  Solving for epsilon, Initial residual = 0.04951181, Final residual = 6.1239983e-05, No Iterations 1
DILUPBiCGStab:  Solving for k, Initial residual = 0.032359511, Final residual = 4.8008267e-05, No Iterations 1

Internal iteration number: 35
DILUPBiCGStab:  Solving for Ux, Initial residual = 0.071202792, Final residual = 0.00057926715, No Iterations 2
DILUPBiCGStab:  Solving for Uy, Initial residual = 0.068275354, Final residual = 0.0005149911, No Iterations 2
DILUPBiCGStab:  Solving for Uz, Initial residual = 0.082075734, Final residual = 0.00053281084, No Iterations 2
DILUPBiCGStab:  Solving for e, Initial residual = 0.045449064, Final residual = 0.00036463555, No Iterations 4
Min/max T:282.66965 350.15
GAMG:  Solving for p_rgh, Initial residual = 0.25106534, Final residual = 0.00080927899, No Iterations 3
time step continuity errors : sum local = 0.00026756412, global = 0.00011048056, cumulative = -20.13007
DILUPBiCGStab:  Solving for w, Initial residual = 0.064538582, Final residual = 0.00041937061, No Iterations 3
bounding magU, min: 0 max: 119.55424 average: 10.481328
    max leaf temp tl=max(new_Tl) [0 0 0 1 0 0 0] 297.98651k, iteration i=0
    max leaf temp tl=296.63541 K, iteration i=1
    max leaf temp tl=296.63541 K, iteration i=2
    max leaf temp tl=296.63541 K, iteration i=3
    max leaf temp tl=296.63541 K, iteration i=4
    max leaf temp tl=296.63541 K, iteration i=5
    max leaf temp tl=296.63541 K, iteration i=6
    max leaf temp tl=296.63541 K, iteration i=7
    max leaf temp tl=296.63541 K, iteration i=8
    max leaf temp tl=296.63541 K, iteration i=9
    max leaf temp tl=296.63541 K, iteration i=10
    max leaf temp tl=296.63541 K, iteration i=11
    max leaf temp tl=296.63541 K, iteration i=12
    max leaf temp tl=296.63541 K, iteration i=13
Vegetation model:  Solving for Tl, Final residual = 0.027598049, Final relative residual = 9.3036933e-05, No Iterations 13
temperature parameters: max Tl = 296.6485, min T = 282.66965, max T = 350.15
resistances: max rs = 2310.3634, max ra = 78.314825
DILUPBiCGStab:  Solving for epsilon, Initial residual = 0.047124609, Final residual = 5.650482e-05, No Iterations 1
DILUPBiCGStab:  Solving for k, Initial residual = 0.029837001, Final residual = 4.2947113e-05, No Iterations 1

Internal iteration number: 36
DILUPBiCGStab:  Solving for Ux, Initial residual = 0.069386333, Final residual = 0.00053004419, No Iterations 2
DILUPBiCGStab:  Solving for Uy, Initial residual = 0.067664617, Final residual = 0.00052091549, No Iterations 2
DILUPBiCGStab:  Solving for Uz, Initial residual = 0.080577283, Final residual = 0.00053016716, No Iterations 2
DILUPBiCGStab:  Solving for e, Initial residual = 0.044289828, Final residual = 0.00041531105, No Iterations 4
Min/max T:282.8927 350.15
GAMG:  Solving for p_rgh, Initial residual = 0.24198451, Final residual = 0.00078969318, No Iterations 3
time step continuity errors : sum local = 0.00025748091, global = -6.0815558e-05, cumulative = -20.130131
DILUPBiCGStab:  Solving for w, Initial residual = 0.061106626, Final residual = 0.00039261393, No Iterations 3
bounding magU, min: 0 max: 115.83859 average: 10.550641
    max leaf temp tl=max(new_Tl) [0 0 0 1 0 0 0] 296.6485k, iteration i=0
    max leaf temp tl=295.2295 K, iteration i=1
    max leaf temp tl=295.2295 K, iteration i=2
    max leaf temp tl=295.2295 K, iteration i=3
[...]
DICPCG:  Solving for Ts, Initial residual = 0.16726919, Final residual = 1.0160987e-16, No Iterations 2
maxChangews: 0.017561562, maxChangeTs: 1.3568499
DICPCG:  Solving for pc, Initial residual = 0.49057656, Final residual = 5.8683561e-15, No Iterations 1
DICPCG:  Solving for Ts, Initial residual = 0.33148234, Final residual = 9.5395882e-18, No Iterations 2
This is going to crash (Ts)! Decreasing timestep and reverting fields...
Decreasing time step...deltaT = 3.0000006
timeToOutput: 3600

Time = 0, deltaT = 3.0000006
solidInternalTime: 0
DICPCG:  Solving for pc, Initial residual = 1, Final residual = 2.773574e-11, No Iterations 1
DICPCG:  Solving for Ts, Initial residual = 1, Final residual = 1.4549724e-14, No Iterations 2
maxChangews: 0.012816631, maxChangeTs: 0.93612082
DICPCG:  Solving for pc, Initial residual = 0.087437394, Final residual = 1.4035919e-12, No Iterations 1
DICPCG:  Solving for Ts, Initial residual = 0.063607765, Final residual = 4.2797115e-16, No Iterations 2
maxChangews: 0.0054817139, maxChangeTs: 0.20845632
DICPCG:  Solving for pc, Initial residual = 0.21285794, Final residual = 8.5039957e-14, No Iterations 1
DICPCG:  Solving for Ts, Initial residual = 0.16423423, Final residual = 2.2616513e-18, No Iterations 2
maxChangews: 0.0087929187, maxChangeTs: 0.67815562
DICPCG:  Solving for pc, Initial residual = 0.49217873, Final residual = 6.2138935e-16, No Iterations 1
DICPCG:  Solving for Ts, Initial residual = 0.33258845, Final residual = 5.6124756e-19, No Iterations 2
This is going to crash (Ts)! Decreasing timestep and reverting fields...
Decreasing time step...deltaT = 1.5000003
timeToOutput: 3600

Time = 0, deltaT = 1.5000003
solidInternalTime: 0
DICPCG:  Solving for pc, Initial residual = 1, Final residual = 6.9165099e-12, No Iterations 1
DICPCG:  Solving for Ts, Initial residual = 1, Final residual = 1.0779272e-15, No Iterations 2
maxChangews: 0.0064320726, maxChangeTs: 0.50079084
DICPCG:  Solving for pc, Initial residual = 0.085355826, Final residual = 2.0848948e-13, No Iterations 1
DICPCG:  Solving for Ts, Initial residual = 0.061647724, Final residual = 2.8406091e-17, No Iterations 2
maxChangews: 0.0020952699, maxChangeTs: 0.09904212
DICPCG:  Solving for pc, Initial residual = 0.20773302, Final residual = 1.333446e-14, No Iterations 1
DICPCG:  Solving for Ts, Initial residual = 0.16275271, Final residual = 4.3433224e-11, No Iterations 1
maxChangews: 0.0043994103, maxChangeTs: 0.33901062
DICPCG:  Solving for pc, Initial residual = 0.49222308, Final residual = 2.1322575e-16, No Iterations 1
DICPCG:  Solving for Ts, Initial residual = 0.3330398, Final residual = 7.6544854e-11, No Iterations 1
This is going to crash (Ts)! Decreasing timestep and reverting fields...
Decreasing time step...deltaT = 0.75000015
timeToOutput: 3600

Time = 0, deltaT = 0.75000015
solidInternalTime: 0
DICPCG:  Solving for pc, Initial residual = 1, Final residual = 1.7284045e-12, No Iterations 1
DICPCG:  Solving for Ts, Initial residual = 1, Final residual = 7.3608221e-17, No Iterations 2
maxChangews: 0.0032220216, maxChangeTs: 0.26032821
DICPCG:  Solving for pc, Initial residual = 0.084198467, Final residual = 3.2643042e-14, No Iterations 1
DICPCG:  Solving for Ts, Initial residual = 0.060616954, Final residual = 1.8144658e-18, No Iterations 2
maxChangews: 0.00089079139, maxChangeTs: 0.047983554
DICPCG:  Solving for pc, Initial residual = 0.20500598, Final residual = 2.385479e-15, No Iterations 1
DICPCG:  Solving for Ts, Initial residual = 0.16200215, Final residual = 1.1270559e-11, No Iterations 1
maxChangews: 0.0022004273, maxChangeTs: 0.16948833
DICPCG:  Solving for pc, Initial residual = 0.49198069, Final residual = 1.4773821e-16, No Iterations 1
DICPCG:  Solving for Ts, Initial residual = 0.33323135, Final residual = 1.9188574e-11, No Iterations 1
This is going to crash (Ts)! Decreasing timestep and reverting fields...
Decreasing time step...deltaT = 0.37500007
timeToOutput: 3600

Time = 0, deltaT = 0.37500007
solidInternalTime: 0
DICPCG:  Solving for pc, Initial residual = 1, Final residual = 4.3184376e-13, No Iterations 1
DICPCG:  Solving for Ts, Initial residual = 1, Final residual = 4.8116642e-18, No Iterations 2
maxChangews: 0.0016125129, maxChangeTs: 0.13293515
DICPCG:  Solving for pc, Initial residual = 0.083588512, Final residual = 5.6262369e-15, No Iterations 1
DICPCG:  Solving for Ts, Initial residual = 0.060087052, Final residual = 2.98927e-11, No Iterations 1
maxChangews: 0.00040540513, maxChangeTs: 0.023569275
DICPCG:  Solving for pc, Initial residual = 0.20360817, Final residual = 4.9105157e-16, No Iterations 1
DICPCG:  Solving for Ts, Initial residual = 0.16161533, Final residual = 2.8715081e-12, No Iterations 1
maxChangews: 0.0011003923, maxChangeTs: 0.084739895
DICPCG:  Solving for pc, Initial residual = 0.49179963, Final residual = 7.5917404e-17, No Iterations 1
DICPCG:  Solving for Ts, Initial residual = 0.33331707, Final residual = 4.8037592e-12, No Iterations 1
This is going to crash (Ts)! Decreasing timestep and reverting fields...
Decreasing time step...deltaT = 0.18750004
timeToOutput: 3600

Time = 0, deltaT = 0.18750004
solidInternalTime: 0
DICPCG:  Solving for pc, Initial residual = 1, Final residual = 1.0813663e-13, No Iterations 1
DICPCG:  Solving for Ts, Initial residual = 1, Final residual = 3.0757613e-19, No Iterations 2
maxChangews: 0.00080663273, maxChangeTs: 0.067202264
DICPCG:  Solving for pc, Initial residual = 0.083276655, Final residual = 1.1270522e-15, No Iterations 1
DICPCG:  Solving for Ts, Initial residual = 0.0598182, Final residual = 7.3738673e-12, No Iterations 1
maxChangews: 0.00019228325, maxChangeTs: 0.011673591
DICPCG:  Solving for pc, Initial residual = 0.20290187, Final residual = 1.2728837e-16, No Iterations 1
DICPCG:  Solving for Ts, Initial residual = 0.16141819, Final residual = 7.2453612e-13, No Iterations 1
maxChangews: 0.00055024054, maxChangeTs: 0.042368878
DICPCG:  Solving for pc, Initial residual = 0.49169568, Final residual = 1.2363672e-16, No Iterations 1
DICPCG:  Solving for Ts, Initial residual = 0.3333572, Final residual = 1.2018975e-12, No Iterations 1
This is going to crash (Ts)! Decreasing timestep and reverting fields...
Decreasing time step...deltaT = 0.093750019
timeToOutput: 3600

Time = 0, deltaT = 0.093750019
solidInternalTime: 0
DICPCG:  Solving for pc, Initial residual = 1, Final residual = 2.7091509e-14, No Iterations 1
DICPCG:  Solving for Ts, Initial residual = 1, Final residual = 9.2045848e-11, No Iterations 1
maxChangews: 0.00040341052, maxChangeTs: 0.033790487
DICPCG:  Solving for pc, Initial residual = 0.083118809, Final residual = 2.4805572e-16, No Iterations 1
DICPCG:  Solving for Ts, Initial residual = 0.059682771, Final residual = 1.8307841e-12, No Iterations 1
Total internal iterations: 2
Time step continuity errors: sum local = 1.2584394e-06, global = -1.2543203e-06, cumulative = -1.2543203e-06
Increasing time step slowly...deltaT = 0.11250002
timeToOutput: 3599.9062

Time = 0.09375001875, deltaT = 0.11250002
solidInternalTime: 0.093750019
DICPCG:  Solving for pc, Initial residual = 0.27913282, Final residual = 1.8870877e-15, No Iterations 1
DICPCG:  Solving for Ts, Initial residual = 0.30044527, Final residual = 1.4612458e-11, No Iterations 1
maxChangews: 0.00040258159, maxChangeTs: 0.033787041
DICPCG:  Solving for pc, Initial residual = 0.37574878, Final residual = 8.4176742e-17, No Iterations 1
DICPCG:  Solving for Ts, Initial residual = 0.26814939, Final residual = 3.51775e-13, No Iterations 1
This is going to crash (Ts)! Decreasing timestep and reverting fields...
Decreasing time step...deltaT = 0.056250011
timeToOutput: 3599.9062

Time = 0.09375001875, deltaT = 0.056250011
solidInternalTime: 0.093750019
DICPCG:  Solving for pc, Initial residual = 0.39070408, Final residual = 3.2696249e-16, No Iterations 1
DICPCG:  Solving for Ts, Initial residual = 0.17683718, Final residual = 2.1502581e-12, No Iterations 1
maxChangews: 0.00048063774, maxChangeTs: 0.016950831
DICPCG:  Solving for pc, Initial residual = 0.51191869, Final residual = 1.1344099e-16, No Iterations 1
DICPCG:  Solving for Ts, Initial residual = 0.22429944, Final residual = 7.3301533e-14, No Iterations 1
This is going to crash (Ts)! Decreasing timestep and reverting fields...
Decreasing time step...deltaT = 0.028125006
timeToOutput: 3599.9062

Time = 0.09375001875, deltaT = 0.028125006
solidInternalTime: 0.093750019
DICPCG:  Solving for pc, Initial residual = 0.24110439, Final residual = 7.0311418e-17, No Iterations 1
DICPCG:  Solving for Ts, Initial residual = 0.097012297, Final residual = 2.9492852e-13, No Iterations 1
maxChangews: 0.00024032012, maxChangeTs: 0.0084898781
DICPCG:  Solving for pc, Initial residual = 0.40345586, Final residual = 5.9417926e-17, No Iterations 1
DICPCG:  Solving for Ts, Initial residual = 0.16900447, Final residual = 1.3772618e-14, No Iterations 1
This is going to crash (Ts)! Decreasing timestep and reverting fields...
Decreasing time step...deltaT = 0.014062503
timeToOutput: 3599.9062

Time = 0.09375001875, deltaT = 0.014062503
solidInternalTime: 0.093750019
DICPCG:  Solving for pc, Initial residual = 0.12609532, Final residual = 2.0412417e-17, No Iterations 1
DICPCG:  Solving for Ts, Initial residual = 0.050983794, Final residual = 3.8751646e-14, No Iterations 1
maxChangews: 0.00012016037, maxChangeTs: 0.0042485718
DICPCG:  Solving for pc, Initial residual = 0.26397065, Final residual = 5.6868197e-17, No Iterations 1
DICPCG:  Solving for Ts, Initial residual = 0.11319111, Final residual = 2.3138623e-15, No Iterations 1
This is going to crash (Ts)! Decreasing timestep and reverting fields...
Decreasing time step...deltaT = 0.0070312514
timeToOutput: 3599.9062

Time = 0.09375001875, deltaT = 0.0070312514
solidInternalTime: 0.093750019
DICPCG:  Solving for pc, Initial residual = 0.059494391, Final residual = 9.7479952e-18, No Iterations 1
DICPCG:  Solving for Ts, Initial residual = 0.02616001, Final residual = 4.9663492e-15, No Iterations 1
maxChangews: 6.0080265e-05, maxChangeTs: 0.0021251962
DICPCG:  Solving for pc, Initial residual = 0.15133577, Final residual = 3.3829721e-17, No Iterations 1
DICPCG:  Solving for Ts, Initial residual = 0.068166439, Final residual = 3.5430063e-16, No Iterations 1
This is going to crash (Ts)! Decreasing timestep and reverting fields...
Decreasing time step...deltaT = 0.0035156257
timeToOutput: 3599.9062

Time = 0.09375001875, deltaT = 0.0035156257
solidInternalTime: 0.093750019
DICPCG:  Solving for pc, Initial residual = 0.028931916, Final residual = 3.43947e-18, No Iterations 1
DICPCG:  Solving for Ts, Initial residual = 0.013253687, Final residual = 6.3003743e-16, No Iterations 1
maxChangews: 3.0040152e-05, maxChangeTs: 0.001062826
DICPCG:  Solving for pc, Initial residual = 0.081653657, Final residual = 9.8147978e-18, No Iterations 1
DICPCG:  Solving for Ts, Initial residual = 0.037963982, Final residual = 5.2807438e-17, No Iterations 1
This is going to crash (Ts)! Decreasing timestep and reverting fields...
Decreasing time step...deltaT = 0.0017578129
timeToOutput: 3599.9062

Time = 0.09375001875, deltaT = 0.0017578129
solidInternalTime: 0.093750019
DICPCG:  Solving for pc, Initial residual = 0.014270404, Final residual = 1.7141766e-18, No Iterations 1
DICPCG:  Solving for Ts, Initial residual = 0.0066711347, Final residual = 7.9858532e-17, No Iterations 1
maxChangews: 1.5020081e-05, maxChangeTs: 0.00053146998
DICPCG:  Solving for pc, Initial residual = 0.042508164, Final residual = 4.9294686e-18, No Iterations 1
DICPCG:  Solving for Ts, Initial residual = 0.020127875, Final residual = 1.0488022e-17, No Iterations 1
This is going to crash (Ts)! Decreasing timestep and reverting fields...
Decreasing time step...deltaT = 0.00087890643
timeToOutput: 3599.9062

Time = 0.09375001875, deltaT = 0.00087890643
solidInternalTime: 0.093750019
DICPCG:  Solving for pc, Initial residual = 0.0070872982, Final residual = 8.4517928e-19, No Iterations 1
DICPCG:  Solving for Ts, Initial residual = 0.0033467515, Final residual = 1.0678434e-17, No Iterations 1
maxChangews: 7.5100416e-06, maxChangeTs: 0.00026574924
DICPCG:  Solving for pc, Initial residual = 0.021700925, Final residual = 3.8939055e-18, No Iterations 1
DICPCG:  Solving for Ts, Initial residual = 0.010377152, Final residual = 2.5344337e-18, No Iterations 1
This is going to crash (Ts)! Decreasing timestep and reverting fields...
Decreasing time step...deltaT = 0.00043945321
timeToOutput: 3599.9062

Time = 0.09375001875, deltaT = 0.00043945321
solidInternalTime: 0.093750019
DICPCG:  Solving for pc, Initial residual = 0.0035317933, Final residual = 5.474923e-19, No Iterations 1
DICPCG:  Solving for Ts, Initial residual = 0.0016761859, Final residual = 1.4560804e-18, No Iterations 1
maxChangews: 3.7550211e-06, maxChangeTs: 0.00013287819
DICPCG:  Solving for pc, Initial residual = 0.010965733, Final residual = 1.241392e-18, No Iterations 1
DICPCG:  Solving for Ts, Initial residual = 0.0052705932, Final residual = 7.2962307e-19, No Iterations 1
This is going to crash (Ts)! Decreasing timestep and reverting fields...
Decreasing time step...deltaT = 0.00021972661
timeToOutput: 3599.9062

Time = 0.09375001875, deltaT = 0.00021972661
solidInternalTime: 0.093750019
DICPCG:  Solving for pc, Initial residual = 0.0017629476, Final residual = 3.8481278e-19, No Iterations 1
DICPCG:  Solving for Ts, Initial residual = 0.00083879724, Final residual = 3.4384454e-19, No Iterations 1
maxChangews: 1.8775106e-06, maxChangeTs: 6.6439984e-05
DICPCG:  Solving for pc, Initial residual = 0.0055121478, Final residual = 1.0069038e-18, No Iterations 1
DICPCG:  Solving for Ts, Initial residual = 0.0026562907, Final residual = 5.9695183e-19, No Iterations 1
This is going to crash (Ts)! Decreasing timestep and reverting fields...
Decreasing time step...deltaT = 0.0001098633
timeToOutput: 3599.9062

Time = 0.09375001875, deltaT = 0.0001098633
solidInternalTime: 0.093750019
DICPCG:  Solving for pc, Initial residual = 0.00088073837, Final residual = 1.0607322e-19, No Iterations 1
DICPCG:  Solving for Ts, Initial residual = 0.00041957492, Final residual = 7.3428201e-20, No Iterations 1
maxChangews: 9.3875531e-07, maxChangeTs: 3.3220215e-05
DICPCG:  Solving for pc, Initial residual = 0.0027634521, Final residual = 3.1283576e-19, No Iterations 1
DICPCG:  Solving for Ts, Initial residual = 0.001333457, Final residual = 2.4131719e-19, No Iterations 1
This is going to crash (Ts)! Decreasing timestep and reverting fields...
Decreasing time step...deltaT = 5.4931652e-05
timeToOutput: 3599.9062

Time = 0.09375001875, deltaT = 5.4931652e-05
solidInternalTime: 0.093750019
DICPCG:  Solving for pc, Initial residual = 0.00044018557, Final residual = 8.2960483e-20, No Iterations 1
DICPCG:  Solving for Ts, Initial residual = 0.00020983157, Final residual = 2.962673e-20, No Iterations 1
maxChangews: 4.6937766e-07, maxChangeTs: 1.6610163e-05
DICPCG:  Solving for pc, Initial residual = 0.0013835784, Final residual = 1.5419961e-19, No Iterations 1
DICPCG:  Solving for Ts, Initial residual = 0.00066806437, Final residual = 1.4657759e-19, No Iterations 1
This is going to crash (Ts)! Decreasing timestep and reverting fields...
Decreasing time step...deltaT = 2.7465826e-05
timeToOutput: 3599.9062

Time = 0.09375001875, deltaT = 2.7465826e-05
solidInternalTime: 0.093750019
DICPCG:  Solving for pc, Initial residual = 0.00022004691, Final residual = 2.3366772e-20, No Iterations 1
DICPCG:  Solving for Ts, Initial residual = 0.00010492682, Final residual = 1.3696356e-20, No Iterations 1
maxChangews: 2.3468883e-07, maxChangeTs: 8.3050955e-06
DICPCG:  Solving for pc, Initial residual = 0.00069225305, Final residual = 7.8336975e-20, No Iterations 1
DICPCG:  Solving for Ts, Initial residual = 0.00033436712, Final residual = 7.0578857e-20, No Iterations 1
This is going to crash (Ts)! Decreasing timestep and reverting fields...
Decreasing time step...deltaT = 1.3732913e-05
timeToOutput: 3599.9062

Time = 0.09375001875, deltaT = 1.3732913e-05
solidInternalTime: 0.093750019
DICPCG:  Solving for pc, Initial residual = 0.000110012, Final residual = 1.1539748e-20, No Iterations 1
DICPCG:  Solving for Ts, Initial residual = 5.2466174e-05, Final residual = 6.9486432e-21, No Iterations 1
maxChangews: 1.1734442e-07, maxChangeTs: 4.1525512e-06
DICPCG:  Solving for pc, Initial residual = 0.00034624271, Final residual = 7.8808111e-20, No Iterations 1
DICPCG:  Solving for Ts, Initial residual = 0.00016726743, Final residual = 1.9129173e-20, No Iterations 1
This is going to crash (Ts)! Decreasing timestep and reverting fields...
Decreasing time step...deltaT = 6.8664565e-06
timeToOutput: 3599.9062

Time = 0.09375001875, deltaT = 6.8664565e-06
solidInternalTime: 0.093750019
DICPCG:  Solving for pc, Initial residual = 5.5003142e-05, Final residual = 1.9547881e-20, No Iterations 1
DICPCG:  Solving for Ts, Initial residual = 2.6233782e-05, Final residual = 3.2966902e-21, No Iterations 1
maxChangews: 5.86722e-08, maxChangeTs: 2.0762765e-06
DICPCG:  Solving for pc, Initial residual = 0.00017315037, Final residual = 3.7923846e-20, No Iterations 1
DICPCG:  Solving for Ts, Initial residual = 8.3654697e-05, Final residual = 1.7645872e-20, No Iterations 1
This is going to crash (Ts)! Decreasing timestep and reverting fields...
Decreasing time step...deltaT = 3.4332282e-06
timeToOutput: 3599.9062

Time = 0.09375001875, deltaT = 3.4332282e-06
solidInternalTime: 0.093750019
DICPCG:  Solving for pc, Initial residual = 2.7500861e-05, Final residual = 2.9153504e-21, No Iterations 1
DICPCG:  Solving for Ts, Initial residual = 1.3117069e-05, Final residual = 2.9754369e-21, No Iterations 1
maxChangews: 2.9336078e-08, maxChangeTs: 1.0381384e-06
DICPCG:  Solving for pc, Initial residual = 8.6582468e-05, Final residual = 1.493311e-20, No Iterations 1
DICPCG:  Solving for Ts, Initial residual = 4.1832606e-05, Final residual = 4.3709821e-21, No Iterations 1
This is going to crash (Ts)! Decreasing timestep and reverting fields...
Decreasing time step...deltaT = 1.7166141e-06
timeToOutput: 3599.9062

Time = 0.09375001875, deltaT = 1.7166141e-06
solidInternalTime: 0.093750019
DICPCG:  Solving for pc, Initial residual = 1.3750269e-05, Final residual = 1.1269301e-21, No Iterations 1
DICPCG:  Solving for Ts, Initial residual = 6.5585836e-06, Final residual = 8.1622388e-22, No Iterations 1
maxChangews: 1.4668039e-08, maxChangeTs: 5.1906926e-07
DICPCG:  Solving for pc, Initial residual = 4.3293047e-05, Final residual = 7.337242e-21, No Iterations 1
DICPCG:  Solving for Ts, Initial residual = 2.0917617e-05, Final residual = 2.2201309e-21, No Iterations 1
This is going to crash (Ts)! Decreasing timestep and reverting fields...
Decreasing time step...deltaT = 1e-06
timeToOutput: 3599.9062

Time = 0.09375001875, deltaT = 1e-06
solidInternalTime: 0.093750019
DICPCG:  Solving for pc, Initial residual = 8.0100714e-06, Final residual = 1.3826623e-21, No Iterations 1
DICPCG:  Solving for Ts, Initial residual = 3.8206662e-06, Final residual = 8.5102745e-22, No Iterations 1
maxChangews: 8.5447525e-09, maxChangeTs: 3.0237965e-07
DICPCG:  Solving for pc, Initial residual = 2.5220466e-05, Final residual = 5.6062166e-21, No Iterations 1
DICPCG:  Solving for Ts, Initial residual = 1.2185713e-05, Final residual = 2.0746077e-21, No Iterations 1
This is going to crash (Ts)! Decreasing timestep and reverting fields...


--> FOAM FATAL ERROR: 
Cannot decrease time step further. Dumping fields and exiting...

FOAM aborting

#0  Foam::error::printStack(Foam::Ostream&) at ??:?
#1  Foam::error::abort() at ??:?
#2  ? in "/home/engsinar/OpenFOAM/engsinar-8/platforms/linux64GccDPInt32Opt/bin/urbanMicroclimateFoam"
#3  __libc_start_main in "/lib/x86_64-linux-gnu/libc.so.6"
#4  ? in "/home/engsinar/OpenFOAM/engsinar-8/platforms/linux64GccDPInt32Opt/bin/urbanMicroclimateFoam"
Aborted (core dumped)
